SIMULATION
  SIMULATION_TYPE SUBSURFACE
  PROCESS_MODELS
    SUBSURFACE_FLOW flow
      MODE RICHARDS
      OPTIONS
        USE_MASS_DENSITY
      /
    /
  /
END

SUBSURFACE
EXTERNAL_FILE 543_flow.txt
END_SUBSURFACE
