# PFLOTRAN input deck for WIPP_FLOW MODE
# uses structured grid and regions by coordinates
# attempt to capture all wipp input blocks
#==================================simulation==================================#
SIMULATION
  INPUT_RECORD_FILE #special WIPP feature
  SIMULATION_TYPE SUBSURFACE
  PROCESS_MODELS
    SUBSURFACE_FLOW flow
      MODE WIPP_FLOW
      OPTIONS
        HARMONIC_PERMEABILITY_ONLY
        GAS_COMPONENT_FORMULA_WEIGHT 2.01588d0 #hardwired
      /
    /
  / #end PROCESS_MODELS block
END

SUBSURFACE

#=========================== numerical methods ================================
NUMERICAL_METHODS FLOW

  TIMESTEPPER
    TIMESTEP_MAXIMUM_GROWTH_FACTOR 1.250000
    MAXIMUM_CONSECUTIVE_TS_CUTS 30
    TS_ACCELERATION 10 #hardwired
    DT_FACTOR 1.25 1.25 1.25 1.1 1.0 1.0 0.8 0.6 0.4 0.33 #hardwired
    GAS_SAT_GOV_SWITCH_ABS_TO_REL    1.d-2
  /

  NEWTON_SOLVER
    MAXIMUM_NUMBER_OF_ITERATIONS 15
    DO_NOT_SCALE_JACOBIAN
    LIQUID_RESIDUAL_INFINITY_TOL 1.d-2
    GAS_RESIDUAL_INFINITY_TOL 1.d-2
    MAX_ALLOW_REL_LIQ_PRES_CHANG_NI 1.d-2
    MAX_ALLOW_REL_GAS_SAT_CHANGE_NI 1.d-3
    GAS_SAT_THRESH_FORCE_EXTRA_NI 1.d-3
    GAS_SAT_THRESH_FORCE_TS_CUT 0.20
    MAX_ALLOW_GAS_SAT_CHANGE_TS 1.d-2
    MIN_LIQ_PRES_FORCE_TS_CUT -1.d8
    MAX_ALLOW_LIQ_PRES_CHANGE_TS 1.d7
  /

  LINEAR_SOLVER
    SOLVER DIRECT
  /

END
#===================================regression=================================#
REGRESSION
  CELL_IDS
   1
  /
END
#===================================datasets===================================#
DATASET soil_reference_pressure
  FILENAME ./initcond.h5
  HDF5_DATASET_NAME soil_reference_pressure
END

DATASET initial_liq_pressure
  FILENAME ./initcond.h5
  HDF5_DATASET_NAME Liquid_Pressure
END

DATASET initial_gas_saturation
  FILENAME ./initcond.h5
  HDF5_DATASET_NAME Gas_Saturation
END
#=====================================grid=====================================#
GRID
  TYPE STRUCTURED
    NXYZ 2 1 1
    BOUNDS
      0.d0 0.d0 0.d0
      20. 10. 10.
    /
  GRAVITY -0.000000 0.000000 -9.806650
END
#============================reference temperature=============================#
REFERENCE_TEMPERATURE 2.7000000d+01
#=====================================eos======================================#
EOS WATER
  DENSITY BRAGFLO 1.2200000d+03 1.0132500d+05 3.1000000d-10
  VISCOSITY CONSTANT 2.1000000d-03
END

EOS GAS
  DENSITY RKS
    USE_CUBIC_ROOT_SOLUTION #hardwired
    USE_EFFECTIVE_PROPERTIES #hardwired
    HYDROGEN #hardwired
    TC 4.3600000d+01
    PC 2.0470000d+06
    AC 0.0000000d+00
    A  4.2747000d-01
    B  8.6640000d-02
  /
  VISCOSITY CONSTANT 8.9338900d-06
END
#=================================klinkenberg==================================#
KLINKENBERG_EFFECT
  A -3.4100000d-01
  B 2.7100000d-01
END
#================================solver options================================#


#====================================times=====================================#
TIME
  FINAL_TIME 101. y
  INITIAL_TIMESTEP_SIZE 8.6400000d+00 s
  MAXIMUM_TIMESTEP_SIZE 5.500000e+01 y at 0.000000000e+00 y
  MAXIMUM_TIMESTEP_SIZE 2.740000e-05 y at 1.000000000e+02 y
  MAXIMUM_TIMESTEP_SIZE 5.500000e+01 y at 1.000000600e+02 y
END
#====================================output====================================#
#==============================observation points==============================#
#===================================regions====================================#
REGION all
  COORDINATES
    -1.d20 -1.d20 -1.d20
     1.d20  1.d20  1.d20
  /
END

REGION rWAS_AREA
  COORDINATES
    0.d0 0.d0 0.d0
   10.d0 10.d0 10.d0
  /
END

REGION rDRZ
  COORDINATES
    10.d0 0.d0 0.d0
    20.d0 10.d0 10.d0
  /
END

#================================creep closure=================================#
CREEP_CLOSURE_TABLE creep001
  FILENAME  ../../pflotran_closure.dat
  SHUTDOWN_PRESSURE 5.0d7 #Hardwired (Pa)
  TIME_CLOSEOFF 3.1557d12 #Hardwired (s = 1e5 y)
END
#======================material properties & char curves=======================#
MATERIAL_PROPERTY WAS_AREA
  ID 1
  POROSITY 8.4800000d-01
  TORTUOSITY 1.0000000d+00
  SOIL_COMPRESSIBILITY_FUNCTION BRAGFLO
  BULK_COMPRESSIBILITY 0.0000000d+00
  SOIL_REFERENCE_PRESSURE DATASET soil_reference_pressure
  PERMEABILITY
    PERM_X_LOG10 -1.2619800d+01
    PERM_Y_LOG10 -1.2619800d+01
    PERM_Z_LOG10 -1.2619800d+01
  /
  CREEP_CLOSURE_TABLE creep001 #hardwired
  CHARACTERISTIC_CURVES WAS_AREA_KRP12
END

CHARACTERISTIC_CURVES WAS_AREA_KRP12
  SATURATION_FUNCTION BRAGFLO_KRP12
    KPC 1
    PCT_A 0.0000000d+00
    PCT_EXP 0.0000000d+00
    LAMBDA 2.8900000d+00
    S_MIN 1.5d-2 #hardwired
    S_EFFMIN 1.d-3 #hardwired
    LIQUID_RESIDUAL_SATURATION 1.7760510d-01
    MAX_CAPILLARY_PRESSURE 1.0000000d+08
  /
  PERMEABILITY_FUNCTION BRAGFLO_KRP12_LIQ
    LAMBDA 2.8900000d+00
    LIQUID_RESIDUAL_SATURATION 1.7760510d-01
    GAS_RESIDUAL_SATURATION 1.6549088d-02
  /
  PERMEABILITY_FUNCTION BRAGFLO_KRP12_GAS
    LAMBDA 2.8900000d+00
    LIQUID_RESIDUAL_SATURATION 1.7760510d-01
    GAS_RESIDUAL_SATURATION 1.6549088d-02
  /
END

MATERIAL_PROPERTY DRZ_1
  ID 2
  POROSITY 7.3823916d-03
  TORTUOSITY 1.0000000d+00
  SOIL_COMPRESSIBILITY_FUNCTION BRAGFLO
  BULK_COMPRESSIBILITY 7.4100000d-10
  SOIL_REFERENCE_PRESSURE DATASET soil_reference_pressure
  PERMEABILITY
    PERM_X_LOG10 -1.7874834d+01
    PERM_Y_LOG10 -1.7874834d+01
    PERM_Z_LOG10 -1.7874834d+01
  /
  WIPP-FRACTURE
    INITIATING_PRESSURE 2.0000000d+05
    ALTERED_PRESSURE 3.8000000d+06
    MAXIMUM_FRACTURE_POROSITY 4.6382392d-02
    FRACTURE_EXPONENT 1.1241969d+01
    ALTER_PERM_X #hardwired
    ALTER_PERM_Y #hardwired
  /
  CHARACTERISTIC_CURVES DRZ_1_KRP4
END

CHARACTERISTIC_CURVES DRZ_1_KRP4
  SATURATION_FUNCTION BRAGFLO_KRP4
    KPC 1
    PCT_A 0.0000000d+00
    PCT_EXP 0.0000000d+00
    LAMBDA 7.0000000d-01
    LIQUID_RESIDUAL_SATURATION 0.0000000d+00
    GAS_RESIDUAL_SATURATION 0.0000000d+00
    MAX_CAPILLARY_PRESSURE 1.0000000d+08
  /
  PERMEABILITY_FUNCTION BRAGFLO_KRP4_LIQ
    LAMBDA 7.0000000d-01
    LIQUID_RESIDUAL_SATURATION 0.0000000d+00
    GAS_RESIDUAL_SATURATION 0.0000000d+00
  /
  PERMEABILITY_FUNCTION BRAGFLO_KRP4_GAS
    LAMBDA 7.0000000d-01
    LIQUID_RESIDUAL_SATURATION 0.0000000d+00
    GAS_RESIDUAL_SATURATION 0.0000000d+00
  /
END

MATERIAL_PROPERTY BH_OPEN
  ID 3
  POROSITY 3.2000000d-01
  TORTUOSITY 1.0000000d+00
  SOIL_COMPRESSIBILITY_FUNCTION BRAGFLO
  BULK_COMPRESSIBILITY 0.0000000d+00
  SOIL_REFERENCE_PRESSURE DATASET soil_reference_pressure
  PERMEABILITY
    PERM_X_LOG10 -9.0000000d+00
    PERM_Y_LOG10 -9.0000000d+00
    PERM_Z_LOG10 -9.0000000d+00
  /
  CHARACTERISTIC_CURVES BH_OPEN_KRP11
END

CHARACTERISTIC_CURVES BH_OPEN_KRP11
  SATURATION_FUNCTION BRAGFLO_KRP11
    LIQUID_RESIDUAL_SATURATION 0.0000000d+00
    MAX_CAPILLARY_PRESSURE 1.0000000d+08
  /
  PERMEABILITY_FUNCTION BRAGFLO_KRP11_LIQ
    TOLC 1.0d-2 #value hardwired into BRAGFLO
    LIQUID_RESIDUAL_SATURATION 0.0000000d+00
    GAS_RESIDUAL_SATURATION 0.0000000d+00
  /
  PERMEABILITY_FUNCTION BRAGFLO_KRP11_GAS
    TOLC 1.0d-2 #value hardwired into BRAGFLO
    LIQUID_RESIDUAL_SATURATION 0.0000000d+00
    GAS_RESIDUAL_SATURATION 0.0000000d+00
  /
END

#===============================flow conditions================================#
FLOW_CONDITION initial
  TYPE
    LIQUID_PRESSURE DIRICHLET
    GAS_SATURATION DIRICHLET
  /
  LIQUID_PRESSURE DATASET initial_liq_pressure
  GAS_SATURATION DATASET initial_gas_saturation
END

#========================initial & boundary conditions=========================#
INITIAL_CONDITION initial
  FLOW_CONDITION initial
  REGION all
END

#====================================strata====================================#
STRATA
  REGION rWAS_AREA
  MATERIAL WAS_AREA
END

STRATA
  REGION rDRZ
  MATERIAL DRZ_1
END

STRATA
  REGION rWAS_AREA
  MATERIAL BH_OPEN
  START_TIME 100. y
  FINAL_TIME 101. y
END

END_SUBSURFACE
#===============================wipp source sink===============================#
WIPP_SOURCE_SINK
  BRUCITES  5.4846498d-08  ![mol/kg/s] MgO inundated hydration rate: salado
  BRUCITEH  1.9093505d-08  ![mol/kg/s] MgO humid hydration rate
  HYMAGCON  6.4759550d-10  ![mol/kg/s] hydromagnesite to magnesite conversion rate
  SAT_WICK  3.2225264d-01  ![-] wicking saturation parameter
  GRATMICI  2.3857059d-10  ![mol/kg/s] inundated biodegradation rate for cellulose
  GRATMICH  3.3883774d-11  ![mol/kg/s] humid biodegradation rate for cellulose
  SALT_PERCENT 3.2400d1 #Hardwired
  CORRMCO2  6.6774822d-15  ![m/s] inundated steel corrosion rate w/o microbial gas generation
  HUMCORR   0.0000000d+00  ![m/s] humid steel corrosion rate
  ASDRUM    6.0000000d+00  ![m2] surface aread of corrodable metal per drum
  ALPHARXN  -1.0000000d+03  ![-]
  SOCMIN    1.5000000d-02  ![-]
  BIOGENFC  7.2556361d-01  ![-]
  PROBDEG   1  ![-]
  #note: multiple inventories may be included, but here there is only one
  INVENTORY whole_repository
    VREPOS 4.3840608d+05 !optional param needed for SCALE_BY_VOLUME of WASTE_PANEL
    SOLIDS
      IRONCHW  1.0900000d+07 kg   ! mass of Fe-based material in CH waste
      IRONRHW  1.3500000d+06 kg   ! mass of Fe-based material in RH waste
      IRNCCHW  3.0000000d+07 kg   ! mass of Fe containers for CH waste
      IRNCRHW  6.8600000d+06 kg   ! mass of Fe containers for RH waste
      CELLCHW  3.5500000d+06 kg   ! mass of cellulosics in CH waste
      CELLRHW  1.1800000d+05 kg   ! mass of cellulosics in RH waste
      CELCCHW  7.2300000d+05 kg   ! mass of cellulosics in emplacment materials for CH waste
      CELCRHW  0.0000000d+00 kg   ! mass of cellulosics in container materials for RH waste
      CELECHW  2.6000000d+05 kg   ! mass of cellulosics in emplacement materials for CH waste
      CELERHW  0.0000000d+00 kg   ! mass of cellulosics in emplacement materials for RH waste
      RUBBCHW  1.0900000d+06 kg   ! mass of rubber in CH waste
      RUBBRHW  8.8000000d+04 kg   ! mass of rubber in RH waste
      RUBCCHW  6.9100000d+04 kg   ! mass of rubber in container materials for CH waste
      RUBCRHW  4.1800000d+03 kg   ! mass of rubber in container materials for RH waste
      RUBECHW  0.0000000d+00 kg   ! mass of rubber in emplacement materials for CH waste
      RUBERHW  0.0000000d+00 kg   ! mass of rubber in emplacement materials for RH waste
      PLASCHW  5.2000000d+06 kg   ! mass of plastics in CH waste
      PLASRHW  2.9300000d+05 kg   ! mass of plastics in RH waste
      PLSCCHW  2.4700000d+06 kg   ! mass of plastics in container materials for CH waste
      PLSCRHW  3.0100000d+05 kg   ! mass of plastics in container materials for RH waste
      PLSECHW  1.2500000d+06 kg   ! mass of plastics in emplacement materials for CH waste
      PLSERHW  0.0000000d+00 kg   ! mass of plastics in emplacement materials for RH waste
      PLASFAC  1.7000000d+00      ! mass ratio of plastics to equivalent carbon
      MGO_EF   1.2000000d+00      ! MgO excess factor: ratio mol-MgO/mol-Organic-C
      DRMCONC  1.8669853d+00      ! [-/m3] number of metal drums per m3 in a panel in ideal packing (DRROOM/VROOM = 6804/3644.378))
    /
    AQUEOUS
      NITRATE 2.7400000d+07   ! moles in panel  QINIT[B:32]
      SULFATE 4.9100000d+06   ! moles in panel  QINIT[B:31]
    /
  /

  WASTE_PANEL rwas_area
    REGION rWAS_AREA
    INVENTORY whole_repository
    SCALE_BY_VOLUME yes
  /

STOICHIOMETRIC_MATRIX
0.0000000d+00 1.0000000d+00 -2.0000000d+00 -1.0000000d+00 0.0000000d+00 1.0000000d+00 0.0000000d+00 0.0000000d+00 0.0000000d+00 0.0000000d+00 # anoxic iron corrosion
0.0000000d+00 0.0000000d+00 9.1293237d-01 0.0000000d+00 -1.0000000d+00 0.0000000d+00 0.0000000d+00 0.0000000d+00 0.0000000d+00 0.0000000d+00 # microbial gas generation
0.0000000d+00 -1.0000000d+00 2.0000000d+00 0.0000000d+00 0.0000000d+00 -1.0000000d+00 1.0000000d+00 0.0000000d+00 0.0000000d+00 0.0000000d+00 # iron hydroxide sulfidation
0.0000000d+00 0.0000000d+00 0.0000000d+00 -1.0000000d+00 0.0000000d+00 0.0000000d+00 1.0000000d+00 0.0000000d+00 0.0000000d+00 0.0000000d+00 # metallic iron sulfidation
0.0000000d+00 0.0000000d+00 -1.0000000d+00 0.0000000d+00 0.0000000d+00 0.0000000d+00 0.0000000d+00 -1.0000000d+00 1.0000000d+00 0.0000000d+00 # MgO hydration
2.5000000d-01 0.0000000d+00 0.0000000d+00 0.0000000d+00 0.0000000d+00 0.0000000d+00 0.0000000d+00 0.0000000d+00 -1.2500000d+00 0.0000000d+00 # brucite carbonation
0.0000000d+00 0.0000000d+00 0.0000000d+00 0.0000000d+00 0.0000000d+00 0.0000000d+00 0.0000000d+00 -1.0000000d+00 0.0000000d+00 1.0000000d+00 # MgO carbonation
-1.0000000d+00 0.0000000d+00 4.0000000d+00 0.0000000d+00 0.0000000d+00 0.0000000d+00 0.0000000d+00 0.0000000d+00 1.0000000d+00 4.0000000d+00 # hydromagnesite conversion
/

END_WIPP_SOURCE_SINK
