#Description: 0D test for setting tortuosity as a function of porosity raised
#             to a power.
# Glenn Hammond
# 2017-03-24

#=========================== simulation =======================================
SIMULATION
  SIMULATION_TYPE SUBSURFACE
  PROCESS_MODELS
    SUBSURFACE_FLOW flow
      MODE RICHARDS
    /
    SUBSURFACE_TRANSPORT transport
      MODE GIRT
    /
  /
END

SUBSURFACE

#=========================== numerical methods ================================
NUMERICAL_METHODS FLOW

  TIMESTEPPER
    # end simulation without taking a time step
    MAX_STEPS 0
  /

  LINEAR_SOLVER
    SOLVER DIRECT
  /

END

NUMERICAL_METHODS TRANSPORT

  LINEAR_SOLVER
    SOLVER DIRECT
  /

END

#=========================== regression =======================================
REGRESSION
  CELLS
    1
  /
END

#=========================== chemistry ========================================
CHEMISTRY
  PRIMARY_SPECIES
    Tracer
  /
  OUTPUT
    OFF
  /
END

#=========================== solver options ===================================



#=========================== discretization ===================================
GRID
  TYPE STRUCTURED
  NXYZ 1 1 1
  BOUNDS
    0.d0 0.d0 0.d0
    1.d0 1.d0 1.d0
  /
END

#=========================== fluid properties =================================
FLUID_PROPERTY
  DIFFUSION_COEFFICIENT 1.d-9
END

#=========================== material properties ==============================
MATERIAL_PROPERTY soil1
  ID 1
  POROSITY 0.25d0
  TORTUOSITY_FUNCTION_OF_POROSITY 0.5d0
  PERMEABILITY
    PERM_ISO 1.d-12
  /
  SATURATION_FUNCTION default
END

#=========================== characteristic curves ============================
CHARACTERISTIC_CURVES default
  DEFAULT
END

#=========================== output options ===================================
OUTPUT
  VARIABLES
    POROSITY
    TORTUOSITY
  /
END

#=========================== times ============================================
TIME
  FINAL_TIME 1.d0 y
  INITIAL_TIMESTEP_SIZE 1.d0 h
  MAXIMUM_TIMESTEP_SIZE 2.5d-1 y
END

#=========================== regions ==========================================
REGION all
  COORDINATES
    0.d0 0.d0 0.d0
    1.d0 1.d0 1.d0
  /
END

#=========================== flow conditions ==================================
FLOW_CONDITION initial
  TYPE
    PRESSURE DIRICHLET
  /
  PRESSURE 101325.d0
END

#=========================== transport conditions =============================
TRANSPORT_CONDITION initial
  TYPE ZERO_GRADIENT
  CONSTRAINT initial
    CONCENTRATIONS
      Tracer 1.d-10  T
    /
  /
END

#=========================== condition couplers ===============================
# initial condition
INITIAL_CONDITION
  FLOW_CONDITION initial
  TRANSPORT_CONDITION initial
  REGION all
END

#=========================== stratigraphy couplers ============================
STRATA
  REGION all
  MATERIAL soil1
END

END_SUBSURFACE
