#Description: 1D tracer problem.  Run until tracer breakthrough at midpoint.

SIMULATION
  SIMULATION_TYPE SUBSURFACE
  PROCESS_MODELS
    SUBSURFACE_TRANSPORT transport
      GLOBAL_IMPLICIT
    /
  /
END

SUBSURFACE

#=========================== regression =======================================
REGRESSION
#  CELLS_PER_PROCESS 5
  CELLS
    25 
    50 
    75
    100
  /
END

#=========================== flow mode ========================================
# Uniform velocity (see below). No flow mode specified.

#=========================== useful tranport parameters ==================
SPECIFIED_VELOCITY
  UNIFORM? YES
  DATASET LIST 
    TIME_UNITS yr
    DATA_UNITS m/yr
    INTERPOLATION STEP
    0.d0 1.d0 0.d0 0.d0
    5.d0 -1.d0 0.d0 0.d0
    15.d0 1.d0 0.d0 0.d0
  /
END

#=========================== chemistry ========================================
CHEMISTRY
  PRIMARY_SPECIES
    Tracer
  /
  OUTPUT
    TOTAL
    ALL
  /
END

#=========================== solver options ===================================
LINEAR_SOLVER TRANSPORT
  SOLVER DIRECT
END

#=========================== discretization ===================================
GRID
  TYPE structured
  NXYZ 100 1 1
  BOUNDS
    0.d0 0.d0 0.d0
    100.d0 1.d0 1.d0
  /
END

#=========================== fluid properties =================================
FLUID_PROPERTY
  DIFFUSION_COEFFICIENT 1.d-9
END

#=========================== material properties ==============================
MATERIAL_PROPERTY soil1
  ID 1
  POROSITY 0.25d0
  TORTUOSITY 1.d0
END

#=========================== output options ===================================
OUTPUT
#  TIMES y 5. 10. 15. 20.
  PERIODIC TIME 1.d0 y
  FORMAT HDF5
#  FORMAT TECPLOT POINT
END

#=========================== times ============================================
TIME
# pulse starts and ends at 50m
  FINAL_TIME 20.d0 y
  INITIAL_TIMESTEP_SIZE 1.d0 h
  MAXIMUM_TIMESTEP_SIZE 2.5d-1 y
END

#=========================== regions ==========================================
REGION all
  COORDINATES
    0.d0 0.d0 0.d0
    100.d0 1.d0 1.d0
  /
END

REGION pulse_region_scenario_2
  COORDINATES
    49.d0 0.d0 0.d0
    51.d0 1.d0 1.d0
  /
END

REGION west
  FACE WEST
  COORDINATES
    0.d0 0.d0 0.d0
    0.d0 1.d0 1.d0
  /
END

REGION east
  FACE EAST
  COORDINATES
    100.d0 0.d0 0.d0
    100.d0 1.d0 1.d0
  /
END

#=========================== transport conditions =============================
TRANSPORT_CONDITION initial
  TYPE dirichlet_zero_gradient
  CONSTRAINT_LIST
    0.d0 initial
  /
END

TRANSPORT_CONDITION pulse
  TYPE zero_gradient
  CONSTRAINT_LIST
    0.d0 pulse
  /
END

#=========================== constraints ======================================
CONSTRAINT initial
  CONCENTRATIONS
    Tracer 1.d-7  T
  /
END

CONSTRAINT pulse
  CONCENTRATIONS
    Tracer 1.d-3  T
  /
END

#=========================== condition couplers ===============================
# initial condition
INITIAL_CONDITION
  TRANSPORT_CONDITION initial
  REGION all
END

# pulse starts and ends at 50m
INITIAL_CONDITION
  TRANSPORT_CONDITION pulse
  REGION pulse_region_scenario_2
END

BOUNDARY_CONDITION outlet
  TRANSPORT_CONDITION initial
  REGION east
END

BOUNDARY_CONDITION inlet
  TRANSPORT_CONDITION initial
  REGION west
END

#=========================== stratigraphy couplers ============================
STRATA
  REGION all
  MATERIAL soil1
END


END_SUBSURFACE
