#Description: 1D test problem for TH mode with ice using thermal characteristic curves
#================================= TH mode ====================================
SIMULATION
  SIMULATION_TYPE SUBSURFACE
  PROCESS_MODELS
    SUBSURFACE_FLOW flow
      MODE TH
      OPTIONS
        FREEZING
        ICE_MODEL PAINTER_EXPLICIT
      /
    /
  /
END

SUBSURFACE

#============================ numerical methods ===============================
NUMERICAL_METHODS FLOW

  TIMESTEPPER
    TS_ACCELERATION 25
    #MAX_STEPS 1
    PRESSURE_CHANGE_GOVERNOR 1.e5
    TEMPERATURE_CHANGE_GOVERNOR 0.1
    CONCENTRATION_CHANGE_GOVERNOR 1.d-1
  /

  NEWTON_SOLVER
    ATOL 1D-12
    RTOL 1D-8
    STOL 1D-12
    ITOL 1D-8
    #ITOL_STOMP 1D-8
    MAX_NORM 1d6
    MAXIMUM_NUMBER_OF_ITERATIONS 100
    MAXF 1000
  /

END

#================================ regression ==================================
REGRESSION
#  CELLS_PER_PROCESS 2
  CELL_IDS
    1
    26
    50
  /
/

#============================== discretization ================================
GRID
  TYPE STRUCTURED
  ORIGIN 0.d0 0.d0 0.d0
  NXYZ 1 1 50
  BOUNDS
    0.d0 0.d0 0.d0
    1.d0 1.d0 10.d0
  /
END

#============================ fluid properties ================================
FLUID_PROPERTY
  DIFFUSION_COEFFICIENT 1.d-9
/

#=========================== material properties ==============================
MATERIAL_PROPERTY soil1
  ID 1
  POROSITY 0.45d0
  TORTUOSITY 0.01d0
  ROCK_DENSITY 2700
  SPECIFIC_HEAT 837.d0
  THERMAL_CHARACTERISTIC_CURVES cctf
  CHARACTERISTIC_CURVES default
  LONGITUDINAL_DISPERSIVITY 3.1536d0
  PERMEABILITY
    PERM_X 1.3d-13
    PERM_Y 1.3d-13
    PERM_Z 1.3d-13
  /
/

THERMAL_CHARACTERISTIC_CURVES cctf
  THERMAL_CONDUCTIVITY_FUNCTION FROZEN
    THERMAL_CONDUCTIVITY_DRY 0.25d0 W/m-C
    THERMAL_CONDUCTIVITY_WET 1.3d0 W/m-C
    KERSTEN_EXPONENT 0.45
    THERMAL_CONDUCTIVITY_FROZEN 2.3588d0 W/m-C
    KERSTEN_EXPONENT_FROZEN 0.95
    ICE_MODEL PAINTER_EXPLICIT
  /
/

#========================== saturation functions ==============================
CHARACTERISTIC_CURVES default
  SATURATION_FUNCTION VAN_GENUCHTEN
    LIQUID_RESIDUAL_SATURATION 0.005d0
    ALPHA 2.83d-4
    M 0.721d0
    MAX_CAPILLARY_PRESSURE 1.d9
  /
  PERMEABILITY_FUNCTION MUALEM
    PHASE LIQUID
    LIQUID_RESIDUAL_SATURATION 0.005d0
    M 0.721d0
  /
/

#============================== output options ================================
skip
OUTPUT
  TIMES y 0.25d0 0.5d0 0.75d0 1.d0 2.d0 3.d0 4.d0 5.d0 6.d0 7.d0 8.d0 9.d0 10.d0
  SCREEN PERIODIC 10
  PERIODIC_OBSERVATION TIMESTEP 1
  FORMAT TECPLOT POINT
  #FORMAT HDF5
  #VELOCITY_AT_CENTER
/
noskip
#================================== times =====================================
TIME
  FINAL_TIME 1.d-3 y
  INITIAL_TIMESTEP_SIZE 1.d-12 y
  MAXIMUM_TIMESTEP_SIZE 1.d-1 y
/

#================================== regions ===================================
REGION all
  COORDINATES
    0.d0 0.d0 0.d0
    1.d0 1.d0 10.d0
  /
END

REGION top
  FACE TOP
  COORDINATES
    0.d0 0.d0 10.d0
    1.d0 1.d0 10.d0
  /
END

REGION bottom
  FACE BOTTOM
  COORDINATES
    0.d0 0.d0 0.d0
    1.d0 1.d0 0.d0
  /
END

#============================= flow conditions ================================
FLOW_CONDITION initial
  UNITS Pa, C
  TYPE
    LIQUID_PRESSURE HYDROSTATIC
    TEMPERATURE DIRICHLET
  /
  DATUM 0.d0 0.d0 5.d0
  LIQUID_PRESSURE 101325.D0
  TEMPERATURE 5.D0
END

FLOW_CONDITION top
  UNITS Pa, C
  TYPE
    LIQUID_FLUX neumann
    TEMPERATURE DIRICHLET
  /
  LIQUID_FLUX 0.d0
  TEMPERATURE -5.D0
END


FLOW_CONDITION bottom
  UNITS Pa, C
  TYPE
    LIQUID_PRESSURE HYDROSTATIC
    TEMPERATURE DIRICHLET
  /
  DATUM 0.d0 0.d0 5.d0
  LIQUID_PRESSURE 101325.d0
  TEMPERATURE 5.d0
END

#====================== initial and boundary conditions =======================
# initial condition
INITIAL_CONDITION
  FLOW_CONDITION initial
  REGION all
END

# top boundary condition
BOUNDARY_CONDITION
  FLOW_CONDITION top
  REGION top
END

# bottom boundary condition
BOUNDARY_CONDITION
  FLOW_CONDITION bottom
  REGION bottom
END

#========================== stratigraphy couplers =============================
STRATA
REGION all
MATERIAL soil1
END

END_SUBSURFACE
