# TOIL - hydrostatic test with RTEMPVD
SIMULATION
  SIMULATION_TYPE SUBSURFACE
  PROCESS_MODELS
    SUBSURFACE_FLOW Flow
      MODE TOIL_IMS
      OPTIONS
       RESERVOIR_DEFAULTS
      /
    / ! end of subsurface_flow
  / ! end of process models
END  !! end simulation 

SUBSURFACE

#=========================== regression =======================================
REGRESSION
  CELLS
    1
    2
    13
    14
    23
    24
  /
END

#=========================== discretization ===================================
GRID
  TYPE STRUCTURED
  ORIGIN 0.d0 0.d0 -1120.d0
  NXYZ 1 1 24
  DXYZ
    50.0
    50.0
    5.0
  END
END

#=========================== solver options ===================================
TIMESTEPPER FLOW
  TS_ACCELERATION 4
/

NEWTON_SOLVER FLOW
  ATOL 1D-8
  RTOL 1D-8
  STOL 1D-30
  DTOL 1D15
  ITOL 1D-7
  MAXIT 8
END

#=========================== times ============================================
TIME
  FINAL_TIME 0.1d0 d
  INITIAL_TIMESTEP_SIZE 1.0d-2 d  
  MAXIMUM_TIMESTEP_SIZE 50.d0 d
/

#=========================== output options ===================================
skip
OUTPUT
  TIMES d 0.0 0.10d0
  FORMAT HDF5
  VARIABLES
    TEMPERATURE
    LIQUID_PRESSURE
    LIQUID_SATURATION
    LIQUID_DENSITY
    LIQUID_MOBILITY
    LIQUID_ENERGY
    OIL_PRESSURE
    OIL_SATURATION
    OIL_DENSITY
    OIL_MOBILITY
    OIL_ENERGY
    CAPILLARY_PRESSURE
  END
END
noskip

#=========================== material properties ==============================
MATERIAL_PROPERTY formation
  ID 1
  POROSITY 0.3d0
  TORTUOSITY 1.d0
  ROCK_DENSITY 2.65d3
  SPECIFIC_HEAT 1.d3
  THERMAL_CONDUCTIVITY_DRY 2.1
  THERMAL_CONDUCTIVITY_WET 2.1 
  CHARACTERISTIC_CURVES ch1
  PERMEABILITY
    PERM_X 1.e-13
    PERM_Y 1.e-13
    PERM_Z 1.e-14
  /
/

#=========================== saturation functions =============================
CHARACTERISTIC_CURVES ch1
  CAP_PRESSURE_FUNCTION_OW VAN_GENUCHTEN
   WATER_CONNATE_SATURATION 0.0
   WATER_RESIDUAL_SATURATION 0.20  
   M 0.5d0
   ALPHA 5.792e-05
   MAX_CAPILLARY_PRESSURE 5.d5
   !SMOOTH !when using smoothing option   
  /
  PERMEABILITY_FUNCTION_WAT MOD_BROOKS_COREY
   M 2.0d0
   WATER_CONNATE_SATURATION 0.0
   WATER_RESIDUAL_SATURATION 0.20
   MAX_REL_PERM 1.0d0 !default is 1 anyway
  END
  PERMEABILITY_FUNCTION_OW MOD_BROOKS_COREY
   M 2.0d0
   OIL_RESIDUAL_SATURATION 0.2d0
   MAX_REL_PERM 1.0d0 !default is 1 anyway
  END  
/

#=========================== EOSs =============================================

! if den, enth and visc models not specified default to IFC67
EOS WATER
  SURFACE_DENSITY 1000.0 kg/m^3 !not used in this dataset as no wells
END

EOS OIL
  SURFACE_DENSITY 734.29d0 kg/m^3 !not used in this dataset as no wells
  ! den = den0 + C(p-p1) - E(t-t1)
  DENSITY LINEAR
    REFERENCE_VALUE 734.29d0        !den0 [kg/m3]  
    PRES_REF_VALUE 1.d5             !p1 [Pa]
    TEMP_REF_VALUE 15.0             !t1 [°C]
    COMPRESS_COEFF 0.7345d-6        !C [kg/m3/Pa]
    THERMAL_EXPANSION_COEFF 0.774d0 !E [kg/m3/°C]
  END
  ENTHALPY LINEAR_TEMP 1.d3 !J/kg/°C 
  VISCOSITY CONSTANT 3.0d-3
END

#=========================== regions ==========================================
REGION all
COORDINATES
-1.d20 -1.d20 -1.d20
 1.d20  1.d20  1.d20
/
/

#=========================== flow conditions ==================================
FLOW_CONDITION initial_water
  TYPE
    PRESSURE HYDROSTATIC
  /
  PRESSURE 100.0 Bar
  DATUM_D 1000.0 m
  OWC_D 1056.0 m
  PCOW_OWC 0.15 Bar
  TEMPERATURE_TABLE
   D_UNITS m
   TEMPERATURE_UNITS C !cannot be otherwise
   RTEMPVD
     1000.0 50.0
     1120.0 51.0
    /
  END
/

#=========================== condition couplers ===============================
INITIAL_CONDITION initial_water
FLOW_CONDITION initial_water
REGION all
/


#=========================== stratigraphy couplers ============================
STRATA
  REGION all
  MATERIAL formation
END

END_SUBSURFACE

