# Well solver regression tests: TOIL with ANALYTICAL_JACOBIAN

SIMULATION
  SIMULATION_TYPE SUBSURFACE
  PROCESS_MODELS
    SUBSURFACE_FLOW Flow
      MODE TOIL_IMS
      OPTIONS
       ISOTHERMAL
       ANALYTICAL_JACOBIAN
      /
    / ! end of subsurface_flow
  / ! end of process models
  !CHECKPOINT
  !/
END  !! end simulation block

SUBSURFACE

#=========================== discretization ===================================

GRID
  TYPE grdecl wstoil.grdecl
END

#=========================set up standard conditions ==========================

REFERENCE_PRESSURE    1.0D5 Pa
REFERENCE_TEMPERATURE 15.0 !C

#=========================== solver options ===================================

TIMESTEPPER FLOW
  TS_ACCELERATION 100
/

NEWTON_SOLVER FLOW
  STOL 1.0D-18
  RTOL 1.0D-8
  ITOL 1.0D-8
  MAXIT 20
END

LINEAR_SOLVER FLOW
END

#=========================== times ============================================
TIME
  FINAL_TIME 365 d
  INITIAL_TIMESTEP_SIZE 1.0d-5 d
  MINIMUM_TIMESTEP_SIZE 1.0D-10 d
  MAXIMUM_TIMESTEP_SIZE 10 d at 0. d
END

#=========================== output options ===================================
skip
OUTPUT
  FORMAT HDF5
  TIMES d 0.0 50 100
  PRINT_PRIMAL_GRID
  EXPLICIT_GRID_PRIMAL_GRID_TYPE cell_centered
  MASS_BALANCE_FILE
    PERIODIC TIMESTEP 1
  END
  ECLIPSE_FILE
    PERIOD_SUM TIMESTEP 5
    PERIOD_RST TIME 50 d
  END
  LINEREPT
END
noskip
#=========================== material properties ==============================

MATERIAL_PROPERTY formation
  ID 1
  TORTUOSITY 1.d0
  ROCK_DENSITY 2.350d3
  SPECIFIC_HEAT 1.0d3
  THERMAL_CONDUCTIVITY_DRY 1.541d0
  THERMAL_CONDUCTIVITY_WET 1.541d0
  SOIL_COMPRESSIBILITY_FUNCTION QUADRATIC
  SOIL_COMPRESSIBILITY    4.35d-10 ! 1/Pa
  SOIL_REFERENCE_PRESSURE 1.0D5
  CHARACTERISTIC_CURVES ch1
/

#=========================== saturation functions =============================

CHARACTERISTIC_CURVES ch1
  CAP_PRESSURE_FUNCTION_OW VAN_GENUCHTEN
   WATER_CONNATE_SATURATION 0.0
   WATER_RESIDUAL_SATURATION 0.20  
   M 0.5d0
   ALPHA 5.792e-05
  # MAX_CAPILLARY_PRESSURE 5.d5
   MAX_CAPILLARY_PRESSURE 0.d0
   !SMOOTH !when using smoothing option   
  /
  PERMEABILITY_FUNCTION_WAT MOD_BROOKS_COREY
   M 2.0d0
   WATER_CONNATE_SATURATION 0.0
   WATER_RESIDUAL_SATURATION 0.20
   MAX_REL_PERM 1.0d0 !default is 1 anyway - only testing purpose here
  END
  PERMEABILITY_FUNCTION_OW MOD_BROOKS_COREY
   M 2.0d0
   OIL_RESIDUAL_SATURATION 0.2d0
   MAX_REL_PERM 1.0d0 !default is 1 anyway - only testing purpose here
  END  
/
#=========================== EOSs =============================================

# Water data is Bw=1.01, Cw=3.0E-6, viscw=0.3, surface density 64 lbs/cuft
# Converted to reference 5000 psi, Bw=1.01, and density=64/1.01 lbs/cuft

EOS WATER
  DENSITY EXPONENTIAL 1015.0313 34473786 4.351132E-10
  VISCOSITY CONSTANT  0.0003   ! 0.3 cp
END

# Oil data is specified by a table, and a surface density of 53 lbs/cuft
# Converted to compressibility form at reference 5000 psi

EOS OIL
  FORMULA_WEIGHT 1000.0d0
  SURFACE_DENSITY 740.757 kg/m^3
  DENSITY INVERSE_LINEAR ! den = den0 / [1- C(p-p1)] [1 + E(t-t1)]
    REFERENCE_VALUE 837.1193678         !den0 [kg/m3]  
    PRES_REF_VALUE 34473786             !p1 [Pa]
    TEMP_REF_VALUE 15.0d0               !t1 [째C]
    COMPRESS_COEFF 1.986274E-10         !C [1/Pa]
    THERMAL_EXPANSION_COEFF 0.0         !E [1/째C]
  END
  ENTHALPY QUADRATIC_TEMP ! h = c1*(t-t1) + 0.5*c2*(t-t2) # Not used
    TEMP_REF_VALUES   15.6d0  15.6d0    !t1, t2 [째C]
    TEMP_COEFFICIENTS  0.0     0.0d0    !c1, c2 [J/kg/째C]
  END
  VISCOSITY CONSTANT 0.002994  ! # Use a constant viscosity of visco(4000)=2.994 cp
END

#=========================== regions ==========================================

REGION all
COORDINATES
-1.d20 -1.d20 -1.d20
 1.d20  1.d20  1.d20
/
/

#=========================== observations ==============================

REGRESSION
  CELLS
    1
    48
  /
END

#=========================== wells ==================================

WELL_DATA injw
  RADIUS 0.0762 m
  WELL_TYPE WATER_INJECTOR
  BHPL     500 Bar
  TARG_WSV 400 m^3/day
  CIJK 1 1 1 1   
END

WELL_DATA prod
  RADIUS 0.0762 m
  WELL_TYPE PRODUCER
  BHPL      100  Bar
  TARG_OSV  400 m^3/day
  TARG_LSV  450 m^3/day
  CIJK 4 4 2 2 
END

#=========================== flow conditions ==================================

FLOW_CONDITION initial_press
  TYPE
    OIL_PRESSURE DIRICHLET
    OIL_SATURATION DIRICHLET
    TEMPERATURE DIRICHLET
  /
  OIL_PRESSURE 33.094D6 !331 bars
  OIL_SATURATION 0.88d0
  TEMPERATURE 15.0d0 C  !up to here it refers to primary vars
  DATUM 0.d0 0.d0 -2540.508
/

#=========================== condition couplers ==============================

INITIAL_CONDITION initial
FLOW_CONDITION initial_press
REGION all
/

#=========================== stratigraphy couplers ============================
STRATA
  REGION all
  MATERIAL formation
END

END_SUBSURFACE
