# PO 9-Feb-2019
# BO equilibration test based on SPE1 data 
# Using 2 characteristic curves in the domain

SIMULATION
  SIMULATION_TYPE SUBSURFACE
  PROCESS_MODELS
    SUBSURFACE_FLOW Flow
      MODE BLACK_OIL
      OPTIONS
       ISOTHERMAL
      /
    / ! end of subsurface_flow
  / ! end of process models
  /
END  !! end simulation block

SUBSURFACE

#=========================== numerical methods ================================
NUMERICAL_METHODS FLOW

  TIMESTEPPER
    TS_ACCELERATION 100
  /

  NEWTON_SOLVER
    STOL 1.0D-18
    RTOL 1.0D-8
    ITOL 1.0D-8
    MAXIMUM_NUMBER_OF_ITERATIONS 20
    ANALYTICAL_JACOBIAN
  /

END

#=========================== regression =======================================
REGRESSION
  CELL_IDS
    2
    5
    7
    10
  /
END

#=========================== discretization ===================================

GRID
  TYPE STRUCTURED
  ORIGIN 0.d0 0.d0 -2500.0
  NXYZ 1 1 10
  DXYZ
    10.0
    10.0
    10.0
  END
END

#=========================set up standard conditions ==========================

!REFERENCE_PRESSURE    1.0D5 Pa
!REFERENCE_TEMPERATURE 15.0 !C

#=========================== solver options ===================================




#=========================== times ============================================
TIME
  FINAL_TIME 3650 d
  INITIAL_TIMESTEP_SIZE 1.0d-1 d
  MINIMUM_TIMESTEP_SIZE 1.0D-10 d
  MAXIMUM_TIMESTEP_SIZE 50 d at 0. d
END

#=========================== output options ===================================
skip
OUTPUT
  FORMAT HDF5
  TIMES d 0.0 66 365 720 1000 2000 3000 3650
  PRINT_PRIMAL_GRID
  EXPLICIT_GRID_PRIMAL_GRID_TYPE cell_centered
  MASS_BALANCE_FILE
    PERIODIC TIMESTEP 1
  END
  OBSERVATION_FILE
    PERIODIC TIMESTEP 1
    VARIABLES
      LIQUID_SATURATION
      LIQUID_DENSITY
      LIQUID_MOBILITY
      LIQUID_VISCOSITY
      OIL_PRESSURE
      OIL_SATURATION
      OIL_DENSITY
      OIL_MOBILITY
      OIL_VISCOSITY
      GAS_SATURATION
      GAS_DENSITY
      GAS_MOBILITY
      !GAS_VISCOSITY      
      TEMPERATURE
      POROSITY
      PERMEABILITY_X
    /
  END
END
noskip
#=========================== material properties ==============================

MATERIAL_PROPERTY mat_lower
  ID 1
  POROSITY 0.1
  TORTUOSITY 1.d0
  ROCK_DENSITY 2.350d3
  SPECIFIC_HEAT 1.0d3
  THERMAL_CONDUCTIVITY_DRY 1.541d0
  THERMAL_CONDUCTIVITY_WET 1.541d0
  SOIL_COMPRESSIBILITY_FUNCTION QUADRATIC
  SOIL_COMPRESSIBILITY    4.35d-10 ! 1/Pa
  SOIL_REFERENCE_PRESSURE 1.0D5
  CHARACTERISTIC_CURVES ch1
  PERMEABILITY
    PERM_X 1.e-13
    PERM_Y 1.e-13
    PERM_Z 1.e-14
  /
/


MATERIAL_PROPERTY mat_upper
  ID 2
  POROSITY 0.1
  TORTUOSITY 1.d0
  ROCK_DENSITY 2.350d3
  SPECIFIC_HEAT 1.0d3
  THERMAL_CONDUCTIVITY_DRY 1.541d0
  THERMAL_CONDUCTIVITY_WET 1.541d0
  SOIL_COMPRESSIBILITY_FUNCTION QUADRATIC
  SOIL_COMPRESSIBILITY    4.35d-10 ! 1/Pa
  SOIL_REFERENCE_PRESSURE 1.0D5
  CHARACTERISTIC_CURVES ch2
  PERMEABILITY
    PERM_X 1.e-13
    PERM_Y 1.e-13
    PERM_Z 1.e-14
  /
/

#=========================== saturation functions =============================

CHARACTERISTIC_CURVES ch1

!tables to match EX1 solution
 KRW_TABLE swfn_table
 KRG_TABLE sgfn_table
 KRO ECLIPSE
   KROW_TABLE sof3_table2
   KROG_TABLE sof3_table2
 END

 TABLE swfn_table
   PRESSURE_UNITS Pa
   EXTERNAL_FILE swfn_table_hi.dat
 END

 TABLE sgfn_table
  PRESSURE_UNITS Bar
  EXTERNAL_FILE sgfn_table_hi.dat
 END

 TABLE sof3_table2
   SOF3
    0        0        0
    0.18     0        0
    0.28     0.0001   0.0001
    0.38     0.001    0.001
    0.43     0.01     0.01
    0.48     0.021    0.021
    0.58     0.09     0.09
    0.63     0.2      0.2
    0.68     0.35     0.35
    0.76     0.7      0.7
    0.83     0.98     0.98
    0.86     0.997    0.997
    0.879    1        1
    0.88     1        1    
   /
 END

/


CHARACTERISTIC_CURVES ch2

!tables to match EX1 solution
 KRW_TABLE swfn_table
 KRG_TABLE sgfn_table
 KRO ECLIPSE
   KROW_TABLE sof3_table2
   KROG_TABLE sof3_table2
 END

 TABLE swfn_table
   PRESSURE_UNITS Pa
   SWFN
    0.12  0       5000
    0.3   0       5000
    1.0   0.0000  5000  
   /
 END

 TABLE sgfn_table
  PRESSURE_UNITS Bar
   SGFN
    0     0       0
    0.02  0       0
    0.05  0.005   0
    0.12  0.025   0
    0.2   0.075   0
    0.25  0.125   0
    0.3   0.19    0
    0.4   0.41    0
    0.45  0.6     0
    0.5   0.72    0
    0.6   0.87    0
    0.7   0.94    0
    0.85  0.98    0
    1.0   1.0     0
   /
 END

 TABLE sof3_table2
   SOF3
    0        0        0
    0.18     0        0
    0.28     0.0001   0.0001
    0.38     0.001    0.001
    0.43     0.01     0.01
    0.48     0.021    0.021
    0.58     0.09     0.09
    0.63     0.2      0.2
    0.68     0.35     0.35
    0.76     0.7      0.7
    0.83     0.98     0.98
    0.86     0.997    0.997
    0.879    1        1
    0.88     1        1    
   /
 END

/

#=========================== EOSs =============================================

EOS WATER
  SURFACE_DENSITY 996.95710 kg/m^3
  DENSITY CONSTANT 996.95710
  VISCOSITY CONSTANT 0.31d-3 ! 1 cp
END

EOS OIL
  FORMULA_WEIGHT 800.0d0
  SURFACE_DENSITY 740.757 kg/m^3
  PVCO
    DATA_UNITS ! Metric in the Eclipse sense
      PRESSURE Bar           !Bar is default
      RS  m^3/m^3            !m^3/m^3 is default
      FVF m^3/m^3            !m^3/m^3 is default
      VISCOSITY cP           !cP default
      COMPRESSIBILITY 1/Bar  !1/Bar is default
      VISCOSIBILITY   1/Bar  !1/Bar is default
    END
    DATA
      TEMPERATURE 15.0
         1.013529    0.178 1.0620  1.0400   0.0001985 0.001308
         18.250422  16.119 1.1500  0.9750   0.0001985 0.001308
         35.487314  32.059 1.2070  0.9100   0.0001985 0.001308
         69.961099  66.078 1.2950  0.8300   0.0001985 0.001308
        138.908669 113.277 1.4350  0.6950   0.0001985 0.001308
        173.382454 138.277 1.5000  0.6410   0.0001985 0.001308
        207.856239 165.640 1.5650  0.5940   0.0001985 0.001308
        276.803809 226.197 1.6950  0.5100   0.0001985 0.001308
        345.751379 288.178 1.8270  0.4490   0.0001985 0.001308
        621.541659 531.473 2.3570  0.2030   0.0001985 0.001308
      END !end TEMP block
    END !endDATA
  END !end PVDO
  ENTHALPY QUADRATIC_TEMP ! h = c1*(t-t1) + 0.5*c2*(t-t2)
    TEMP_REF_VALUES   15.6d0  15.6d0    !t1, t2 [°C]
    TEMP_COEFFICIENTS  0.0     0.0d0    !c1, c2 [J/kg/°C]
  END !end Enthlapy
END !end EOS OIL

EOS GAS
  FORMULA_WEIGHT 16.04d0
  SURFACE_DENSITY 0.97052664 kg/m^3
  PVDG
    DATA_UNITS ! Metric in the Eclipse sense
      PRESSURE  Bar
      FVF       m^3/m^3
      VISCOSITY cP
    END
    DATA
      TEMPERATURE 15.0
          1.013529 0.9357635 0.0080
         18.250422 0.0678972 0.0096
         35.487314 0.0352259 0.0112
         69.961099 0.0179498 0.0140
        138.908669 0.0090619 0.0189
        173.382454 0.0072653 0.0208
        207.856239 0.0060674 0.0228
        276.803809 0.0045534 0.0268
        345.751379 0.0036439 0.0309
        621.541659 0.0021672 0.0470
      END !end TEMP block
    END !endDATA
    !specify temperature dependency for viscosity
  END !end PVDG
END

#=========================== regions ==========================================
REGION all
COORDINATES
-1.d20 -1.d20 -1.d20
 1.d20  1.d20  1.d20
/
/

REGION lower_region
 BLOCK 1 1 1 1 1 5
END

REGION upper_region
 BLOCK 1 1 1 1 6 10
END

#=========================== observations ==============================

#=========================== wells ==================================

#=========================== flow conditions ==================================
FLOW_CONDITION equilibration
  TYPE
    PRESSURE HYDROSTATIC
  /
  PRESSURE 330.0 Bar
  TEMPERATURE_AT_DATUM 130.0d0 C
  GRADIENT_D
    TEMPERATURE 0.d0 0.d0 3.0d-2
  /
  DATUM_D 2480.0 m
  OGC_D 2430.0 m
  PCOG_OGC 0.0D0 Pa !ensure ogc at a depth of 2430.0 as Pcog(sg) = 0 in upper region
  OWC_D 2470.0 m
  PCOW_OWC 5.0D4 Pa !0.5 Bar
  BUBBLE_POINT_TABLE
   D_UNITS m
   PRESSURE_UNITS Bar
   PBVD
     2430.0 327.0
     2470.0 328.0
   /
  END
/

#=========================== condition couplers ==============================

INITIAL_CONDITION equilibration
FLOW_CONDITION equilibration
REGION all
/

#=========================== stratigraphy couplers ============================

STRATA
  MATERIAL mat_lower
  REGION lower_region
END

STRATA
  MATERIAL mat_upper
  REGION upper_region
END

END_SUBSURFACE
