#  Very small version of SPE1 lack oil test run

SIMULATION
  SIMULATION_TYPE SUBSURFACE
  PROCESS_MODELS
    SUBSURFACE_FLOW Flow
      MODE BLACK_OIL
      OPTIONS
       ISOTHERMAL
      /
    / ! end of subsurface_flow
  / ! end of process models
END  !! end simulation block

SUBSURFACE

#=========================== numerical methods ================================
NUMERICAL_METHODS FLOW

  TIMESTEPPER
    TS_ACCELERATION 100
  /

  NEWTON_SOLVER
    STOL 1.0D-18
    RTOL 1.0D-8
    ITOL 1.0D-8
    MAXIMUM_NUMBER_OF_ITERATIONS 20
    ANALYTICAL_JACOBIAN
  /

END

#=========================== discretization ===================================

GRID
  TYPE grdecl mspe1.grdecl
END

#=========================set up standard conditions ==========================

!REFERENCE_PRESSURE    1.0D5 Pa
!REFERENCE_TEMPERATURE 15.0 !C

#=========================== solver options ===================================




#=========================== times ============================================
TIME
  FINAL_TIME 250 d
  INITIAL_TIMESTEP_SIZE 10 d
  MINIMUM_TIMESTEP_SIZE 1.0D-10 d
  MAXIMUM_TIMESTEP_SIZE 30 d at 0. d
END

#=========================== material properties ==============================

MATERIAL_PROPERTY formation
  ID 1
  TORTUOSITY 1.d0
  ROCK_DENSITY 2.350d3
  SPECIFIC_HEAT 1.0d3
  THERMAL_CONDUCTIVITY_DRY 1.541d0
  THERMAL_CONDUCTIVITY_WET 1.541d0
  SOIL_COMPRESSIBILITY_FUNCTION QUADRATIC
  SOIL_COMPRESSIBILITY    4.35d-10 ! 1/Pa
  SOIL_REFERENCE_PRESSURE 1.0D5
  CHARACTERISTIC_CURVES ch1
/

#=========================== saturation functions =============================

CHARACTERISTIC_CURVES ch1

!tables to match EX1 solution
 KRW_TABLE swfn_table
 KRG_TABLE sgfn_table
 KRO ECLIPSE
   KROW_TABLE sof3_table1
   KROG_TABLE sof3_table2
 END

 TABLE swfn_table
   PRESSURE_UNITS Pa
   SWFN
    0.12  0       0
    1.0   0.0000  0  
   /
 END

 TABLE sgfn_table
  PRESSURE_UNITS Pa
   SGFN
    0     0       0
    0.02  0       0
    0.05  0.005   0
    0.12  0.025   0
    0.2   0.075   0
    0.25  0.125   0
    0.3   0.19    0
    0.4   0.41    0
    0.45  0.6     0
    0.5   0.72    0
    0.6   0.87    0
    0.7   0.94    0
    0.85  0.98    0
    1.0   1.0     0
   /
 END

 TABLE sof3_table1
   SOF3
    0        0.0      0.0
    0.88     1.0      1.0
   /
 END

 TABLE sof3_table2
   SOF3
    0        0        0
    0.18     0        0
    0.28     0.0001   0.0001
    0.38     0.001    0.001
    0.43     0.01     0.01
    0.48     0.021    0.021
    0.58     0.09     0.09
    0.63     0.2      0.2
    0.68     0.35     0.35
    0.76     0.7      0.7
    0.83     0.98     0.98
    0.86     0.997    0.997
    0.879    1        1
    0.88     1        1    
   /
 END
 !TEST 
/

#=========================== EOSs =============================================

EOS WATER
  SURFACE_DENSITY 996.95710 kg/m^3
  DENSITY CONSTANT 996.95710
  VISCOSITY CONSTANT 0.31d-3 ! 1 cp
END

EOS OIL
  FORMULA_WEIGHT 800.0d0
  SURFACE_DENSITY 740.757 kg/m^3
  PVCO
    DATA_UNITS ! Metric in the Eclipse sense
      PRESSURE Bar           !Bar is default
      RS  m^3/m^3            !m^3/m^3 is default
      FVF m^3/m^3            !m^3/m^3 is default
      VISCOSITY cP           !cP default
      COMPRESSIBILITY 1/Bar  !1/Bar is default
      VISCOSIBILITY   1/Bar  !1/Bar is default
    END
    DATA
      TEMPERATURE 15.0
         1.013529    0.178 1.0620  1.0400   0.0001985 0.001308
         18.250422  16.119 1.1500  0.9750   0.0001985 0.001308
         35.487314  32.059 1.2070  0.9100   0.0001985 0.001308
         69.961099  66.078 1.2950  0.8300   0.0001985 0.001308
        138.908669 113.277 1.4350  0.6950   0.0001985 0.001308
        173.382454 138.277 1.5000  0.6410   0.0001985 0.001308
        207.856239 165.640 1.5650  0.5940   0.0001985 0.001308
        276.803809 226.197 1.6950  0.5100   0.0001985 0.001308
        345.751379 288.178 1.8270  0.4490   0.0001985 0.001308
        621.541659 531.473 2.3570  0.2030   0.0001985 0.001308
      END !end TEMP block
    END !endDATA
  END !end PVDO
  ENTHALPY QUADRATIC_TEMP ! h = c1*(t-t1) + 0.5*c2*(t-t2)
    TEMP_REF_VALUES   15.6d0  15.6d0    !t1, t2 [°C]
    TEMP_COEFFICIENTS 2.224D3 0.0d0  !c1, c2 [J/kg/Â°C]
  END !end Enthlapy
END !end EOS OIL

EOS GAS
  FORMULA_WEIGHT 16.04d0
  SURFACE_DENSITY 0.97052664 kg/m^3
  PVDG
    DATA_UNITS ! Metric in the Eclipse sense
      PRESSURE  Bar
      FVF       m^3/m^3
      VISCOSITY cP
    END
    DATA
      TEMPERATURE 15.0
          1.013529 0.9357635 0.0080
         18.250422 0.0678972 0.0096
         35.487314 0.0352259 0.0112
         69.961099 0.0179498 0.0140
        138.908669 0.0090619 0.0189
        173.382454 0.0072653 0.0208
        207.856239 0.0060674 0.0228
        276.803809 0.0045534 0.0268
        345.751379 0.0036439 0.0309
        621.541659 0.0021672 0.0470
      END !end TEMP block
    END !endDATA
    !specify temperature dependency for viscosity
  END !end PVDG
END

#=========================== regions ==========================================
REGION all
COORDINATES
-1.d20 -1.d20 -1.d20
 1.d20  1.d20  1.d20
/
/

#=========================== wells ==================================

WELL_DATA injg
  RADIUS 0.0762 m
  SKIN_FACTOR 0.00001
  WELL_TYPE GAS_INJECTOR
  BHPL     1000    Bar
  TARG_GSV 2831684 m^3/day
  CIJK 1 1 2 3   
END

WELL_DATA prod
  RADIUS 0.0762 m
  WELL_TYPE PRODUCER
  BHPL      68.9476 Bar
  TARG_OSV  3179.7 m^3/day
  CIJK 3 3 1 2 
END

#=========================== flow conditions ==================================
FLOW_CONDITION initial_press
  TYPE
    OIL_PRESSURE dirichlet
    OIL_SATURATION dirichlet
    BUBBLE_POINT dirichlet
    TEMPERATURE dirichlet
  /
  OIL_PRESSURE 33.094D6 Pa !331 bars
  OIL_SATURATION 0.88d0
  BUBBLE_POINT 27.6804D6 Pa !276 bars
  TEMPERATURE 15.0d0 C  !up to here it refers to primary vars
  !DATUM 0.d0 0.d0 -2540.508
/

#=========================== condition couplers ==============================

INITIAL_CONDITION initial
FLOW_CONDITION initial_press
REGION all
/

#=========================== regression values ==============================

REGRESSION

  CELL_IDS

    1

    27
  
  /

END


#=========================== stratigraphy couplers ============================
STRATA
  REGION all
  MATERIAL formation
END

END_SUBSURFACE
