#  PO: 21-Aug-2018
#  Todd Longstaff 4P regression run 1 (g) with cc_tables
#  2D, gas+solvent injection into dead oil
#  tests SWFN, SGFN, SOF3
#  Datset generated starting from tl4pr1

# modified version with analytical derivtives

SIMULATION
  SIMULATION_TYPE SUBSURFACE
  PROCESS_MODELS
    SUBSURFACE_FLOW Flow
      MODE SOLVENT_TL
      OPTIONS
       TL_OMEGA 0.0
       ISOTHERMAL
       ANALYTICAL_JACOBIAN
      /
    / ! end of subsurface_flow
  / ! end of process models
END  !! end simulation block

SUBSURFACE

#=========================== regression =======================================

REGRESSION
  CELLS
    1
    20
  /
END

#=========================== discretization ===================================

! Total PV~20*100*100*10*0.5~1E6 rm3

GRID
  TYPE STRUCTURED
  ORIGIN 0.d0 0.d0 -1000.d0
  NXYZ 10 1 2
  DXYZ
    100.0
    100.0
    10.0
  END
END

#=========================set up standard conditions ==========================
#  these are used for the computation of the gas surface volumes
REFERENCE_PRESSURE 1.0D5 Pa
REFERENCE_TEMPERATURE 15.0 !C

#=========================== solver options ===================================

TIMESTEPPER FLOW
  TS_ACCELERATION 100
/

NEWTON_SOLVER FLOW
  STOL 1.0D-16
  RTOL 1.0D-8
  ITOL 1.0D-8
  MAXIT 20
END

LINEAR_SOLVER FLOW
END

#=========================== times ============================================
TIME
# 1000 days at 1000 rm3/day => 1 pv injected
  FINAL_TIME 1000 d
  INITIAL_TIMESTEP_SIZE 1.0d-3 d
  MINIMUM_TIMESTEP_SIZE 1.0D-10 d
  MAXIMUM_TIMESTEP_SIZE 20 d at 0. d
END

#=========================== output options ===================================
!OUTPUT
!  MASS_BALANCE_FILE
!    PERIODIC TIMESTEP 1
!  END
!END
#=========================== material properties ==============================

MATERIAL_PROPERTY formation
  ID 1
  POROSITY 0.5
  TORTUOSITY 1.d0
  ROCK_DENSITY 2.350d3
  SPECIFIC_HEAT 1.0d3
  THERMAL_CONDUCTIVITY_DRY 1.541d0
  THERMAL_CONDUCTIVITY_WET 1.541d0
  SOIL_COMPRESSIBILITY_FUNCTION QUADRATIC
  SOIL_COMPRESSIBILITY    1.0d-10 ! 1/Pa
  SOIL_REFERENCE_PRESSURE 1.0D5
  CHARACTERISTIC_CURVES ch1
  PERMEABILITY
    PERM_X 0.9869E-12 !1000 mD
    PERM_Y 0.9869E-13 !100 mD
    PERM_Z 0.9869E-14 !10 mD
  /
/

#=========================== saturation functions =============================

CHARACTERISTIC_CURVES ch1
 CAP_PRESSURE_FUNCTION_OW CONSTANT
  CONSTANT_PRESSURE 0.0
 /
 CAP_PRESSURE_FUNCTION_OG CONSTANT
   CONSTANT_PRESSURE 0.0
 /
 KRW_TABLE swfn_table
 KRG_TABLE sgfn_table
 KRO ECLIPSE
   KRO_TABLE sof3_table
 END
 !below an example on how different tables
 !can be used to define KROW and KROG 
 !KRO ECLIPSE
 !  KROW_TABLE sof3_table
 !  KROG_TABLE sof3_table
 !END
 !cc tables
 TABLE swfn_table
   PRESSURE_UNITS Pa
   EXTERNAL_FILE swfn_table.dat
 END
 TABLE sof3_table
   EXTERNAL_FILE sof3_table.dat
 END
 TABLE sgfn_table
  PRESSURE_UNITS Pa
  EXTERNAL_FILE sgfn_table.dat
 END
 !TEST 
/
#=========================== EOSs =============================================

EOS WATER
  DENSITY CONSTANT 1000.00d0
  VISCOSITY CONSTANT 1.0d-3 ! 1 cp
END

EOS OIL
  FORMULA_WEIGHT 800.0d0
  SURFACE_DENSITY 750.0 kg/m^3
  PVCO
    DATA_UNITS ! Metric in the Eclipse sense
      PRESSURE Bar           !Bar is default
      RS  m^3/m^3            !m^3/m^3 is default
      FVF m^3/m^3            !m^3/m^3 is default
      VISCOSITY cP           !cP default
      COMPRESSIBILITY 1/Bar  !1/Bar is default
      VISCOSIBILITY   1/Bar  !1/Bar is default
    END
    DATA
      TEMPERATURE 15.0
          1 0.000001 1.0000 0.2 0.0002 0.001 
        500 0.000010 1.0001 0.2 0.0002 0.001 
      END !end TEMP block
    END !endDATA
  END !end PVDO
  ENTHALPY QUADRATIC_TEMP ! h = c1*(t-t1) + 0.5*c2*(t-t2)
    TEMP_REF_VALUES   15.6d0  15.6d0    !t1, t2 [°C]
    TEMP_COEFFICIENTS  0.0     0.0d0    !c1, c2 [J/kg/°C]
  END !end Enthlapy
END !end EOS OIL

EOS GAS
  FORMULA_WEIGHT 16.04d0
  SURFACE_DENSITY 0.678366 kg/m^3
  PVDG
    DATA_UNITS ! Metric in the Eclipse sense
      PRESSURE  Bar
      FVF       m^3/m^3
      VISCOSITY cP
    END
    DATA
      TEMPERATURE 15.0
          1.013529 0.9357635 0.0080
         18.250422 0.0678972 0.0096
         35.487314 0.0352259 0.0112
         69.961099 0.0179498 0.0140
        138.908669 0.0090619 0.0189
        173.382454 0.0072653 0.0208
        200        0.0063404 0.0223
        207.856239 0.0060674 0.0228
        276.803809 0.0045534 0.0268
        345.751379 0.0036439 0.0309
        621.541659 0.0021672 0.0470
      END !end TEMP block
    END !endDATA
    !specify temperature dependency for viscosity
  END !end PVDG
END

EOS SOLVENT
  FORMULA_WEIGHT 16.04d0
  SURFACE_DENSITY 0.678366 kg/m^3
  PVDS
    DATA_UNITS ! Metric in the Eclipse sense
      PRESSURE  Bar
      FVF       m^3/m^3
      VISCOSITY cP
    END
    DATA
      TEMPERATURE 15.0
          1.013529 0.9357635 0.0080
         18.250422 0.0678972 0.0096
         35.487314 0.0352259 0.0112
         69.961099 0.0179498 0.0140
        138.908669 0.0090619 0.0189
        173.382454 0.0072653 0.0208
        200        0.0063404 0.0223
        207.856239 0.0060674 0.0228
        276.803809 0.0045534 0.0268
        345.751379 0.0036439 0.0309
        621.541659 0.0021672 0.0470
      END !end TEMP block
    END !endDATA
    !specify temperature dependency for viscosity
  END !end PVDS
END
#=========================== regions ==========================================

REGION all
COORDINATES
-1.d20 -1.d20 -1.d20
 1.d20  1.d20  1.d20
/
/

REGION inj1
 BLOCK  1 1 1 1 1 1
END

REGION obs_inje
 BLOCK  1 1 1 1 1 1
END

REGION obs_prod
 BLOCK 10 10 1 1 2 2
END

REGION EAST
  FACE EAST
  COORDINATES
    1000   0.d0 -980.d0
    1000 100.d0 -1000.d0
  /
END

#=========================== observation ============================

#=========================== wells ==================================

FLOW_CONDITION gas_injector_cond
  TYPE
    RATE volumetric_rate
    TEMPERATURE DIRICHLET
  /
! Inject gas and solvent
  RATE 0.0 0.0 500.0 500.0 0.0 m^3/day m^3/day m^3/day m^3/day kW
  TEMPERATURE 15.0 C
/

#=========================== flow conditions ==================================

FLOW_CONDITION initial_press
  TYPE
    OIL_PRESSURE DIRICHLET
    OIL_SATURATION DIRICHLET
    GAS_SATURATION DIRICHLET
    SOLVENT_SATURATION DIRICHLET
    TEMPERATURE DIRICHLET
  /
  OIL_PRESSURE 20.0D6 ! 200bars
  OIL_SATURATION 0.9999
  GAS_SATURATION 0.0001
  SOLVENT_SATURATION 0.0
  TEMPERATURE 15.0d0 C  !up to here it refers to primary vars
  DATUM 0.d0 0.d0 -1000.0d0
/

#=========================== condition couplers ==============================

INITIAL_CONDITION initial
FLOW_CONDITION initial_press
REGION all
/

SOURCE_SINK gas_injection1
  FLOW_CONDITION gas_injector_cond
  REGION inj1
END

BOUNDARY_CONDITION output
  FLOW_CONDITION initial_press
  REGION EAST
END

#=========================== stratigraphy couplers ============================
STRATA
  REGION all
  MATERIAL formation
END

END_SUBSURFACE
