SIMULATION
  SIMULATION_TYPE SUBSURFACE
  PROCESS_MODELS
    SUBSURFACE_FLOW flow
      MODE RICHARDS
    END
    SUBSURFACE_GEOMECHANICS geomech
      OPTIONS
        FLOW_COUPLING TWO_WAY_COUPLED
      /
    /
  /
END
SUBSURFACE

EXTERNAL_FILE ../subsurface_common.txt

#=========================== flow conditions ==================================
FLOW_CONDITION initial
  TYPE
    LIQUID_PRESSURE DIRICHLET
  /
  ! 100 [psi] * 6893 [Pa/psi] = ~7.d5
  LIQUID_PRESSURE 7.d5
END

FLOW_CONDITION injection_well
  TYPE
    RATE SCALED_VOLUMETRIC_RATE neighbor_perm
  /
  RATE 100.0 cm^3/s
/

FLOW_CONDITION out_flow_east
  TYPE
    LIQUID_PRESSURE DIRICHLET
  /
  LIQUID_PRESSURE 7.d5
/

#=========================== condition couplers ===============================
INITIAL_CONDITION
  FLOW_CONDITION initial
  TRANSPORT_CONDITION background
  REGION all
END

SOURCE_SINK injection_well
  FLOW_CONDITION injection_well
  TRANSPORT_CONDITION source
  REGION injection_borehole
END

BOUNDARY_CONDITION out_flow_east
  FLOW_CONDITION out_flow_east
  TRANSPORT_CONDITION background
  REGION east
END

END_SUBSURFACE

GEOMECHANICS

EXTERNAL_FILE ../geomech_common.txt

END_GEOMECHANICS
