#Description: Unit cube test problem for pore network flow

SIMULATION
  SIMULATION_TYPE SUBSURFACE
  PROCESS_MODELS
    SUBSURFACE_FLOW flow
      MODE PORE_FLOW
    /
  /
END

SUBSURFACE

EXTERNAL_FILE ./unit_cube.txt

# this block overwrites direct solve set in unit_cube.txt
NUMERICAL_METHODS FLOW
  LINEAR_SOLVER
    SOLVER ITERATIVE
  /
END

#=========================== condition couplers ===============================
BOUNDARY_CONDITION inlet
  FLOW_CONDITION inlet_dirichlet_pnf
  REGION inlet
END

END_SUBSURFACE
