
SIMULATION
  SIMULATION_TYPE SUBSURFACE
  PROCESS_MODELS
    SUBSURFACE_TRANSPORT transport
      GLOBAL_IMPLICIT
    /
  /
END

SUBSURFACE

#=========================== regression =======================================
REGRESSION
  CELLS
    1
  /
END

#=========================== useful tranport parameters =======================
SPECIFIED_VELOCITY
  UNIFORM? YES
  DATASET 0.d0 0.d0 0.d0
END

REFERENCE_LIQUID_DENSITY 1.d3

#=========================== chemistry ========================================
CHEMISTRY
  PRIMARY_SPECIES
    CO2(aq)
    NH4+
    NO3-
    H+
  /
  IMMOBILE_SPECIES
    LabileC
    LabileN
    SOM1
  /
  REACTION_SANDBOX
    SOMDECOMP
      POOLS   ! CN ratio
        Labile
        SOM1  12.d0 
      /
      REACTION
        UPSTREAM_POOL Labile
        DOWNSTREAM_POOL SOM1 0.61d0
        RATE_CONSTANT 0.7 unitless/d

        MONOD
          SPECIES_NAME NH4+
          HALF_SATURATION_CONSTANT 1.d-15
        /
        MONOD
          SPECIES_NAME NO3-
          HALF_SATURATION_CONSTANT 1.d-15
        /

      /
      AMMONIUM_INHIBITION_NITRATE 1.d2
       

    /
  /

  DATABASE ./CLM-CN_database.dat

  OUTPUT
    all
    pH
    TOTAL
  /
END

#=========================== solver options ===================================
LINEAR_SOLVER TRANSPORT
  SOLVER DIRECT
END

NEWTON_SOLVER TRANSPORT
  ATOL 1.d-50
#  RTOL 1.d-12
END

#=========================== discretization ===================================
GRID
  TYPE structured
  NXYZ 1 1 1
  BOUNDS
    0.d0 0.d0 0.d0
    1.d0 1.d0 1.d0
  /
END

#=========================== fluid properties =================================
FLUID_PROPERTY 
  DIFFUSION_COEFFICIENT 1.d-9
END

#=========================== material properties ==============================
MATERIAL_PROPERTY soil1
  ID 1
  POROSITY 0.25d0
  TORTUOSITY 1.d0
END

#=========================== output options ===================================
OUTPUT
  PERIODIC_OBSERVATION TIMESTEP 1
END

#=========================== times ============================================
TIME
  FINAL_TIME 10.d0 d
  INITIAL_TIMESTEP_SIZE 1.d0 h
  MAXIMUM_TIMESTEP_SIZE 0.1d0 d
END

#=========================== regions ==========================================
REGION all
  COORDINATES
    0.d0 0.d0 0.d0
    1.d0 1.d0 1.d0
  /
END

REGION obs_pt
  COORDINATE 0.5 0.5 0.5
END

#=========================== observation points ===============================
OBSERVATION
  REGION obs_pt
END

#=========================== transport conditions =============================
TRANSPORT_CONDITION initial
  TYPE zero_gradient
  CONSTRAINT_LIST
    0.d0 initial
  /
END

#=========================== transport constraints ============================
CONSTRAINT initial
  CONCENTRATIONS
    CO2(aq)  1.d-20    T  ! moles/L
    NH4+     5.d-9     T  ! moles/L
    NO3-     5.d-9     T  ! moles/L
    H+       6.0d0     pH
 /
  IMMOBILE
    LabileC     0.1852d-3
    LabileN     0.00508954d-3
    SOM1        1.d-20 ! moles C/m^3
  /
END

#=========================== condition couplers ===============================
# initial condition
INITIAL_CONDITION
  TRANSPORT_CONDITION initial
  REGION all
END

#=========================== stratigraphy couplers ============================
STRATA
  REGION all
  MATERIAL soil1
END

END_SUBSURFACE


