#Description - Batch CLM-Decomp simulation

SIMULATION
  SIMULATION_TYPE SUBSURFACE
  PROCESS_MODELS
    SUBSURFACE_TRANSPORT transport
      MODE GIRT
    /
  /
END

SUBSURFACE

#=========================== numerical methods ================================
NUMERICAL_METHODS TRANSPORT

  NEWTON_SOLVER
    ATOL 1.d-50
    !RTOL 1.d-12
  /

  LINEAR_SOLVER
    SOLVER DIRECT
  /

END

#=========================== useful tranport parameters =======================
SPECIFIED_VELOCITY
  UNIFORM? YES
  DATASET 0.d0 0.d0 0.d0
END

REFERENCE_LIQUID_DENSITY 1.d3

#=========================== regression =======================================
REGRESSION
  CELL_IDS
    1
  /
END

#=========================== chemistry ========================================
CHEMISTRY
  PRIMARY_SPECIES
    CO2(aq)
    NH4+
    NO3-
    H+
  /
  IMMOBILE_SPECIES
    SOM1
    SOM2
  /
  REACTION_SANDBOX
    SOMDECOMP
      POOLS
        SOM1 12.d0
        SOM2 12.d0
      /
      REACTION
        UPSTREAM_POOL SOM1
        DOWNSTREAM_POOL SOM2 0.72d0
        RATE_CONSTANT 0.7 unitless/d
      /
    /
  /

  DATABASE ./CLM-CN_database.dat
  OUTPUT
    ALL
    pH
    TOTAL
  /
END


#=========================== discretization ===================================
GRID
  TYPE STRUCTURED
  NXYZ 1 1 1
  BOUNDS
    0.d0 0.d0 0.d0
    1.d0 1.d0 1.d0
  /
END

#=========================== fluid properties =================================
FLUID_PROPERTY
  DIFFUSION_COEFFICIENT 1.d-9
END

#=========================== material properties ==============================
MATERIAL_PROPERTY soil1
  ID 1
  POROSITY 0.25d0
  TORTUOSITY 1.d0
END

#=========================== output options ===================================
OUTPUT
  PERIODIC_OBSERVATION TIMESTEP 1
END

#=========================== times ============================================
TIME
  FINAL_TIME 200.d0 d
  INITIAL_TIMESTEP_SIZE 1.d0 h
  MAXIMUM_TIMESTEP_SIZE 1.d-1 d
END

#=========================== regions ==========================================
REGION all
  COORDINATES
    0.d0 0.d0 0.d0
    1.d0 1.d0 1.d0
  /
END

REGION obs_pt
  COORDINATE 0.5 0.5 0.5
END

#=========================== observation points ===============================
OBSERVATION
  REGION obs_pt
END

#=========================== transport conditions =============================
TRANSPORT_CONDITION initial
  TYPE ZERO_GRADIENT
  CONSTRAINT_LIST
    0.d0 initial
  /
END

#=========================== transport constraints ============================
CONSTRAINT initial
  CONCENTRATIONS
    CO2(aq)  1.0d-20  T
    NH4+     1.0d-8   T
    NO3-     1.0d-20  T
    H+       6.0d-0   pH
 /
  IMMOBILE
    SOM1  1.d-0
    SOM2  1.d-20
  /
END

#=========================== condition couplers ===============================
# initial condition
INITIAL_CONDITION
  TRANSPORT_CONDITION initial
  REGION all
END

#=========================== stratigraphy couplers ============================
STRATA
  REGION all
  MATERIAL soil1
END


END_SUBSURFACE

