#
#Description - Test Langumir kinitics of absorption sandbox
# NH4+ absorption

SIMULATION
  SIMULATION_TYPE SUBSURFACE
  PROCESS_MODELS
    SUBSURFACE_TRANSPORT transport
      MODE GIRT
    /
  /
END

SUBSURFACE

#=========================== numerical methods ================================
NUMERICAL_METHODS TRANSPORT

  NEWTON_SOLVER
    NUMERICAL_JACOBIAN
    !ATOL 1.d-50
    !RTOL 1.d-12
  /

  LINEAR_SOLVER
    SOLVER DIRECT
  /

END

#=========================== useful tranport parameters =======================
SPECIFIED_VELOCITY
  UNIFORM? YES
  DATASET 0.d0 0.d0 0.d0
END

REFERENCE_LIQUID_DENSITY 1.d3

#=========================== regression =======================================
REGRESSION
  CELL_IDS
    1
  /
END

#=========================== chemistry ========================================
CHEMISTRY
  PRIMARY_SPECIES
    NH4+             ! (1) NH4 in aq. state used in absorption sandbox
  /

  IMMOBILE_SPECIES
    NH4sorb          ! (2) NH4 in absorbed state used in absorption sandbox
  /
  REACTION_SANDBOX
    LANGMUIR
      NAME_AQ   NH4+                       ! de-absorbed specie name in aqueous species list
      NAME_SORB NH4sorb                    ! absorbed specie name in immobile species list
      EQUILIBRIUM_CONSTANT 1.0d4           ! Ka/Kd (Kl in Langmuir isotherm model), with Ceq in moles/L and Csorbed in moles/m3 
      KINETIC_CONSTANT 1.0d-5              ! 1/s (cannot over 1)
      S_MAX 1.0d-1                         ! sorption capacity (moles/m3)
    /
  /

#  LOG_FORMULATION
  DATABASE ./CLM-CN_database.dat
  OUTPUT
    ALL
    TOTAL
  /
END

#=========================== solver options ===================================

#=========================== discretization ===================================
GRID
  TYPE STRUCTURED
  NXYZ 1 1 1
  BOUNDS
    0.d0 0.d0 0.d0
    1.d0 1.d0 1.d0
  /
END

#=========================== fluid properties =================================
FLUID_PROPERTY
  DIFFUSION_COEFFICIENT 1.d-9
END

#=========================== material properties ==============================
MATERIAL_PROPERTY soil1
  ID 1
  POROSITY 0.25d0
  TORTUOSITY 1.d0
END

#=========================== output options ===================================
OUTPUT
  PERIODIC TIMESTEP 1
  FORMAT HDF5
END

#=========================== times ============================================
TIME
  FINAL_TIME 1.d1 d
  INITIAL_TIMESTEP_SIZE 30.d0 s
  !MINIMUM_TIMESTEP_SIZE 1.d-5 s
  MAXIMUM_TIMESTEP_SIZE 1.d0 h
END

#=========================== regions ==========================================
REGION all
  COORDINATES
    0.d0 0.d0 0.d0
    1.d0 1.d0 1.d0
  /
END

REGION obs_pt
  COORDINATE 0.5 0.5 0.5
END

#=========================== transport conditions =============================
TRANSPORT_CONDITION initial
  TYPE ZERO_GRADIENT
  CONSTRAINT_LIST
    0.d0 initial
  /
END

#=========================== transport constraints ============================
CONSTRAINT initial
  CONCENTRATIONS
    NH4+        1.d-20  T
  /
  IMMOBILE
    NH4sorb     1.d-02
  /
END

#=========================== condition couplers ===============================
# initial condition
INITIAL_CONDITION
  TRANSPORT_CONDITION initial
  REGION all
END

#=========================== stratigraphy couplers ============================
STRATA
  REGION all
  MATERIAL soil1
END


END_SUBSURFACE
