# Description: reaction with linear kinetics
# Benchmark from Lichtner & Kang (2007)
# P.C.Lichtner/S. Karra
# 11/5/12

SIMULATION
  SIMULATION_TYPE SUBSURFACE
  PROCESS_MODELS
    SUBSURFACE_TRANSPORT transport
      MODE GIRT
      OPTIONS
        MULTIPLE_CONTINUUM
      /
    /
  /
END

SUBSURFACE

#=========================== numerical methods ================================
NUMERICAL_METHODS TRANSPORT

  NEWTON_SOLVER
    ATOL 1D-8
    RTOL 1D-8
    STOL 1D-30
    MAX_NORM 1D10
    ITOL 1D-8
    ITOL_SEC 1D-8
    MAXIMUM_NUMBER_OF_ITERATIONS 100
    MAXF 100
  /

END

#=========================== regression =======================================
REGRESSION
  CELLS_PER_PROCESS 5
END

SPECIFIED_VELOCITY
  UNIFORM? YES
  DATASET 14.4d0 0.d0 0.d0 m/yr
END

#=========================== chemistry ========================================
CHEMISTRY
  PRIMARY_SPECIES
    A(aq)
   /

  MINERALS
    A(s)
  /

  MINERAL_KINETICS
    A(s)
     RATE_CONSTANT 1.d-6
  #   ACTIVATION_ENERGY 89.d0 kJ/mol
   /
 /

 DATABASE ../../../database/hanford.dat
  MOLAL
  OUTPUT
    ALL
    TOTAL
  /
/

#===================== Discretization =========================
GRID
  TYPE STRUCTURED
  ORIGIN 0.d0 0.d0 0.d0
  NXYZ 100 1 1
  BOUNDS
    0.d0 0.d0 0.d0
    0.04d0 1.d0 1.d0
  /
END

#===================== Solver options ========================


FLUID_PROPERTY
  DIFFUSION_COEFFICIENT 1.d-9
/

#========================= material properties ===================
MATERIAL_PROPERTY soil1
  ID 1
  POROSITY 1.d0
  TORTUOSITY 1.d0
  ROCK_DENSITY 2.8E3
  SPECIFIC_HEAT 1E3
  THERMAL_CONDUCTIVITY_WET 0.5
  SECONDARY_CONTINUUM
    TYPE SLAB
    LENGTH 0.009
    NUM_CELLS 20
    EPSILON 0.4167d0
    LIQUID_DIFFUSION_COEFFICIENT 0.8d-9
    POROSITY 0.4464
   /
/

#========================= output options =========================
OUTPUT
#  TIMES s 2.6042e4 3.9063e4 5.2083e4
#  PERIODIC_OBSERVATION TIMESTEP 1
#  PRINT_COLUMN_IDS
#  FORMAT TECPLOT POINT
/

#======================== times ====================================
TIME
#  FINAL_TIME 5.2083e4 s
  FINAL_TIME 1.e3 s
  INITIAL_TIMESTEP_SIZE 1.d-6 s
  MAXIMUM_TIMESTEP_SIZE 10.d0 s
  MAXIMUM_TIMESTEP_SIZE 1.d2 s at 5.d3 s
  #MAXIMUM_TIMESTEP_SIZE 1.d3 s at 5.e4 s
/

#=========================== regions ===============================
REGION all
  COORDINATES
    0.d0 0.d0 0.d0
    0.04d0 1.d0 1.d0
  /
END

REGION west
  FACE WEST
  COORDINATES
    0.d0 0.d0 0.d0
    0.d0 1.d0 1.d0
  /
END

REGION east
  FACE EAST
  COORDINATES
    0.04d0 0.d0 0.d0
    0.04d0 1.d0 1.d0
  /
END

REGION obs
  COORDINATES
    0.04d0 0.d0 0.d0
    0.04d0 1.d0 1.d0
  /
END

OBSERVATION
  REGION obs
  SECONDARY_CONCENTRATION
  SECONDARY_MINERAL_VOLFRAC
/

#==== transport conditions=====================================================
TRANSPORT_CONDITION initial
  TYPE DIRICHLET_ZERO_GRADIENT
  CONSTRAINT_LIST
    0.d0 initial
  /
END

TRANSPORT_CONDITION west
  TYPE DIRICHLET
  CONSTRAINT_LIST
    0.d0 west
  /
/

TRANSPORT_CONDITION east
  TYPE ZERO_GRADIENT
  CONSTRAINT_LIST
    0.d0 east
  /
/

#========================== initial and boundary conditions =================
# initial condition
INITIAL_CONDITION
FLOW_CONDITION initial
TRANSPORT_CONDITION initial
REGION all
END

# west boundary condition
BOUNDARY_CONDITION
FLOW_CONDITION west
TRANSPORT_CONDITION west
REGION west
END

# east boundary condition
BOUNDARY_CONDITION
FLOW_CONDITION east
TRANSPORT_CONDITION east
REGION east
END

#===================== stratigraphy couplers ==============================
STRATA
REGION all
MATERIAL soil1
END

#=========================== constraints ======================================
CONSTRAINT initial
CONCENTRATIONS
A(aq)  0.1  M A(s)
/
MINERALS
#mineral vol. frac. area
A(s)       1.d5     7.d2
/
/

CONSTRAINT west
CONCENTRATIONS
A(aq)  1.e-8  T
/
/

CONSTRAINT east
CONCENTRATIONS
A(aq)  1.E-02  T
/
/

#==================== secondary continuum initial constraint ==================
SECONDARY_CONSTRAINT sec
CONCENTRATIONS
A(aq)  0.1  M A(s)
/
MINERALS
#mineral vol. frac. area
A(s)      0.5d5    17.857d2
/
/

END_SUBSURFACE
