#Description: Reaction Sandbox Flexible Biodegradation Hill

#==============================================================================
# DO NOT MODIFY
SIMULATION
  SIMULATION_TYPE SUBSURFACE
  PROCESS_MODELS
    SUBSURFACE_TRANSPORT transport
      MODE GIRT
    /
  /
END
# END DO NOT MODIFY
#==============================================================================

SUBSURFACE

REGRESSION
  CELL_IDS
    1
  /
END

#=========================== constraints ======================================
# modify these initial concentration
CONSTRAINT initial
  CONCENTRATIONS # [mol/L]
    Aaq  1.d-3   F
    Baq  5.d-4   F
    Caq  1.d-10  F
    Daq  1.d-10  F
    Eaq  1.d-10  F
  /
  IMMOBILE     # [mol/m^3 bulk]
    Xim  1.d-4
    Yim  1.d-10
  /
END

#=========================== chemistry ========================================
CHEMISTRY
  PRIMARY_SPECIES
    Aaq
    Baq
    Eaq
    Caq
    Daq
  /
  IMMOBILE_SPECIES
    Yim
    Xim
  /
  REACTION_SANDBOX
    FLEXIBLE_BIODEGRADATION_HILL
      AQUEOUS_CONCENTRATION_UNITS MOLARITY
      MAX_SPECIFIC_UTILIZATION_RATE 324.d0 1/h
      AAQ_HALF_SATURATION_CONSTANT 2.d-4
      BAQ_HALF_SATURATION_CONSTANT 1.25d-5
      CAQ_MONOD_INHIBITION_CONSTANT 2.5d-4
      YIELD 1.d-4
      BIOMASS_DECAY_RATE_CONSTANT 1.d-6
      HILL_EXPONENT 1.2d0
    /
  /
  LOG_FORMULATION
  ACTIVITY_COEFFICIENTS OFF
  OUTPUT
    FREE_ION
    Aaq
    Baq
    Caq
    Daq
    Xim
  /
END

#=========================== numerical methods ================================
NUMERICAL_METHODS TRANSPORT

  NEWTON_SOLVER
  /

  LINEAR_SOLVER
    SOLVER DIRECT
  /

END

#=========================== discretization ===================================
GRID
  TYPE STRUCTURED
  NXYZ 1 1 1
  BOUNDS
    0.d0 0.d0 0.d0
    1.d0 1.d0 1.d0
  /
END

#=========================== fluid properties =================================
REFERENCE_LIQUID_DENSITY 1000.d0

#=========================== material properties ==============================
MATERIAL_PROPERTY soil1
  ID 1
  POROSITY 1.d0
END

#=========================== output options ===================================
OUTPUT
  PERIODIC_OBSERVATION TIMESTEP 1
  TIME_UNITS d
END

#=========================== times ============================================
TIME
  FINAL_TIME 1.d0 w
  INITIAL_TIMESTEP_SIZE 1.d0 h
  MAXIMUM_TIMESTEP_SIZE 1.d0 h
END

#=========================== regions ==========================================
REGION all
  COORDINATES
    -1.d20 -1.d20 -1.d20
    1.d20 1.d20 1.d20
  /
END

REGION middle
  COORDINATE 0.5d0 0.5d0 0.5d0
END

#=========================== observation points ===============================
OBSERVATION
  REGION middle
END

#=========================== transport conditions =============================
TRANSPORT_CONDITION initial
  TYPE ZERO_GRADIENT
  CONSTRAINT_LIST
    0.d0 initial
  /
END

#=========================== condition couplers ===============================
# initial condition
INITIAL_CONDITION
  TRANSPORT_CONDITION initial
  REGION all
END

#=========================== stratigraphy couplers ============================
STRATA
  REGION all
  MATERIAL soil1
END

END_SUBSURFACE
