#==============================================================================
#Description: Regression test for BIOPARTICLE
#             using constant values for filtration and 
#             inactivation rates.
#==============================================================================

############# General Configuration ###############

SIMULATION
  SIMULATION_TYPE SUBSURFACE
  PROCESS_MODELS
    # SUBSURFACE_FLOW flow
    #   MODE RICHARDS
    # /
    SUBSURFACE_TRANSPORT transport
      MODE GIRT
    /
  /
END

############# FLOW CONFIGURATION ###############
SUBSURFACE

REGRESSION
  CELL_IDS
    100
  /
END

NUMERICAL_METHODS transport
  TIMESTEPPER
   CFL_GOVERNOR 1.0
  /
END


############# GRID ###############
GRID
  TYPE STRUCTURED CARTESIAN
  NXYZ 1 1 100
  BOUNDS
    0.d0   0.d0   0.d0
    0.05d0 0.05d0 1.000E+00
  /
END

############# REGIONS ###############
REGION Region__all
  COORDINATES
    0.d0   0.d0   0.d0
    0.05d0 0.05d0 1.000E+00
  /
END

REGION Face__Top
  COORDINATES
    0.05d0 0.05d0 1.000E+00
    0.d0 0.d0 1.000E+00
  /
  FACE TOP
END

REGION Face__Bottom
  COORDINATES
    0.d0 0.d0 0.d0
    0.05d0 0.05d0 0.d0
  /
  FACE BOTTOM
END

REGION Obs__PointOutflow
  COORDINATES
    0.025d0 0.025d0 1.000E+00
  /
END

############# OBSERVATION ###############
OBSERVATION
  REGION Obs__PointOutflow
END

############# FLUID ###############
FLUID_PROPERTY
  DIFFUSION_COEFFICIENT 0.0
END

############# SOILS ###############
MATERIAL_PROPERTY soil1
  ID 1
  POROSITY 3.500E-01
  LONGITUDINAL_DISPERSIVITY 1.000E-04
END

SPECIFIED_VELOCITY
  UNIFORM? YES
  DATASET LIST
    TIME_UNITS h
    DATA_UNITS m/s
    INTERPOLATION STEP
    0.d0 0.d0 0.d0 3.500E-04 
  /
END

########### TRANSPORT CONDITIONS #############
TRANSPORT_CONDITION ic__initial_t
  TYPE DIRICHLET_ZERO_GRADIENT
  CONSTRAINT_LIST
    0.d0 initial_constraint
  /
END

TRANSPORT_CONDITION bc__inflow_t
  TYPE DIRICHLET_ZERO_GRADIENT
  CONSTRAINT_LIST
    0.0d0 inlet_constraint
    2.000E+03 clean_inlet
  /
END

TRANSPORT_CONDITION bc__outflow_t
  TYPE ZERO_GRADIENT
  CONSTRAINT_LIST
    0.d0 initial_constraint
  /
END

############## CONSTRAINTS #################
CONSTRAINT initial_constraint
  CONCENTRATIONS
    Vaq   1.d-10      T
  /
  IMMOBILE
    Vim   1.d-10
  /
END

CONSTRAINT inlet_constraint
  CONCENTRATIONS
    Vaq   1.000E+00   T
  /
END

CONSTRAINT clean_inlet
  CONCENTRATIONS
    Vaq   1.d-10      T
  /
END

############# COUPLERS ###############
# initial condition
INITIAL_CONDITION InitialCondition
  REGION Region__all
  TRANSPORT_CONDITION ic__initial_t
END

# boundary conditions
BOUNDARY_CONDITION Bottom
  REGION Face__Bottom
  TRANSPORT_CONDITION bc__inflow_t
END

BOUNDARY_CONDITION Top
  REGION Face__Top
  TRANSPORT_CONDITION bc__outflow_t
END

############# STRATAS ###############
STRATA
  REGION Region__all
  MATERIAL soil1
END

############# OUTPUT ###############
OUTPUT
 
  OBSERVATION_FILE
    PERIODIC TIME 4.000E+01 s
  /
  FORMAT TECPLOT POINT
  VELOCITY_AT_CENTER
/

############# TIME ###############
TIME
  FINAL_TIME 5.556E-01 h
  INITIAL_TIMESTEP_SIZE 1.000E+01 s
  MAXIMUM_TIMESTEP_SIZE 1.000E+01 s
/

############# CHEMISTRY MAGIC ###############
CHEMISTRY
  PRIMARY_SPECIES
    Vaq
  /
  
  IMMOBILE_SPECIES
    Vim
  /

  REACTION_SANDBOX
    BIOPARTICLE
      PARTICLE_NAME_AQ Vaq
      PARTICLE_NAME_IM Vim
      RATE_ATTACHMENT CONSTANT
        VALUE   1.000E-04 1/s
      /
      RATE_DETACHMENT CONSTANT
        VALUE   1.000E-04 1/s
      /
      DECAY_AQUEOUS CONSTANT
        VALUE 1.000E-05 1/s
      /
      DECAY_ADSORBED CONSTANT
        VALUE 1.000E-03 1/s
      /
    /
  /
  
  LOG_FORMULATION
  TRUNCATE_CONCENTRATION 1.0E-15
  DATABASE ../../../database/simple_rxn_database.dat
  OUTPUT
    TOTAL
    ALL
  /
END

############# REFERENCE VALUES ###############

REFERENCE_PRESSURE 101325.0
REFERENCE_TEMPERATURE 10.0

END_SUBSURFACE
