SIMULATION
  SIMULATION_TYPE SUBSURFACE
  PROCESS_MODELS
    SUBSURFACE_TRANSPORT transport
      MODE GIRT
      OPTIONS
      /
    /
  /
END

#==============================================================================

SUBSURFACE

#=========================== numerical methods ================================
NUMERICAL_METHODS TRANSPORT

  LINEAR_SOLVER
    SOLVER DIRECT
  /

END

#=========================== regression =======================================
REGRESSION
  CELL_IDS
    1
    2
  /
END

#=========================== uniform flow =====================================
SPECIFIED_VELOCITY
  UNIFORM? YES
  DATASET 0.d0 0.d0 0.d0 m/yr
END
REFERENCE_LIQUID_DENSITY 1000.d0

#=========================== chemistry ========================================
CHEMISTRY
  PRIMARY_SPECIES
    Aaq
  /
  REACTION_SANDBOX
    EQUILIBRATE
      SPECIES_NAME Aaq
      EQUILIBRIUM_CONCENTRATION 1.d-4
      HALF_LIFE 0.01 h
    /
  /
  DATABASE ../../../database/simple_rxn_database.dat
  LOG_FORMULATION
  ACTIVITY_COEFFICIENTS OFF
  OUTPUT
    TOTAL
    ALL
  /
END

#=========================== discretization ===================================
GRID
  TYPE STRUCTURED
  NXYZ 2 1 1
  BOUNDS
    0.d0 0.d0 0.d0
    2.d0 1.d0 1.d0
  /
END

#=========================== material properties ==============================
MATERIAL_PROPERTY soil1
  ID 1
  POROSITY 1.d0
  TORTUOSITY 1.d0
END

#=========================== output options ===================================
OUTPUT
  PERIODIC_OBSERVATION TIMESTEP 1
END

#=========================== times ============================================
TIME
  FINAL_TIME 2.d0 h
  INITIAL_TIMESTEP_SIZE 1.d0 h
  MAXIMUM_TIMESTEP_SIZE 1.d0 h
END

#=========================== regions ==========================================
REGION all
  COORDINATES
    -1.d20 -1.d20 -1.d20
    1.d20 1.d20 1.d20
  /
END

REGION cell1
  COORDINATES
    0.0 0.0 0.0
    1.0 1.0 1.0
  /
END

REGION cell2
  COORDINATES
    1.0 0.0 0.0
    2.0 1.0 1.0
  /
END

#=========================== observation points ===============================
OBSERVATION
  REGION all
END

#=========================== transport conditions =============================
TRANSPORT_CONDITION cell1
  TYPE ZERO_GRADIENT
  CONSTRAINT initial1
    CONCENTRATIONS
      Aaq  1.d-1   T
    /
  /
END

TRANSPORT_CONDITION cell2
  TYPE ZERO_GRADIENT
  CONSTRAINT initial2
    CONCENTRATIONS
      Aaq  1.d-10   T
    /
  /
END

#=========================== condition couplers ===============================
# initial condition
INITIAL_CONDITION
  TRANSPORT_CONDITION cell1
  REGION cell1
END

INITIAL_CONDITION
  TRANSPORT_CONDITION cell2
  REGION cell2
END

#=========================== stratigraphy couplers ============================
STRATA
  REGION all
  MATERIAL soil1
END

END_SUBSURFACE
