#Description: 1D Regression Test for reaction_sandbox_example.F90
#
# This file is simplified for regression tests.  To run a full scale simulation
# to 25 years at 1m resolution:
#
# 1. Increase the number of grid cells in the X direction under the GRID card
#    to 100.

#==============================================================================
# DO NOT MODIFY
SIMULATION
  SIMULATION_TYPE SUBSURFACE
  PROCESS_MODELS
    SUBSURFACE_TRANSPORT transport
      MODE RT
      OPTIONS
        NUMERICAL_JACOBIAN
      /
    /
  /
END
# END DO NOT MODIFY
#==============================================================================

SUBSURFACE

#=========================== regression =======================================
REGRESSION
  CELLS
1
    2
3
4
    5
6
7
8
    9
10
  /
END

#=========================== constraints ======================================
# modify these initial concentration
CONSTRAINT initial
  CONCENTRATIONS # [mol/L]
    A(aq)  1.d-10  T
  /
END

# modify these inlet concentrations
CONSTRAINT inlet
  CONCENTRATIONS # [mol/L]
    A(aq)  1.d-3   T
  /
END

#==============================================================================
#==============================================================================
# DO NOT MODIFY ANYTHING BELOW (unless you know what you are doing)
#==============================================================================
#==============================================================================

#=========================== uniform flow =====================================
SPECIFIED_VELOCITY
  UNIFORM? YES
  DATASET 1.d0 0.d0 0.d0 m/yr
END
REFERENCE_LIQUID_DENSITY 1000.d0

#=========================== chemistry ========================================
CHEMISTRY
  PRIMARY_SPECIES
    A(aq)
  /
  REACTION_SANDBOX
    EXAMPLE
      SPECIES_NAME A(aq)
      RATE_CONSTANT 1.d-5 1/h 
    /
  /
  DATABASE ../../../database/hanford.dat
  LOG_FORMULATION
  ACTIVITY_COEFFICIENTS OFF
  OUTPUT
    TOTAL
    ALL
  /
END

#=========================== solver options ===================================
LINEAR_SOLVER TRANSPORT
  SOLVER DIRECT
END

#=========================== discretization ===================================
GRID
  TYPE STRUCTURED
#  NXYZ 100 1 1
  NXYZ 10 1 1
  BOUNDS
    0.d0 0.d0 0.d0
    100.d0 1.d0 1.d0
  /
END

#=========================== fluid properties =================================
FLUID_PROPERTY
  DIFFUSION_COEFFICIENT 1.d-9
END

#=========================== material properties ==============================
MATERIAL_PROPERTY soil1
  ID 1
  POROSITY 0.25d0
  TORTUOSITY 1.d0
END

#=========================== output options ===================================
OUTPUT
  TIMES y 6.25d0 12.5d0 18.75d0
  PERIODIC_OBSERVATION TIMESTEP 1
  FORMAT TECPLOT POINT
END

#=========================== times ============================================
TIME
  FINAL_TIME 25.d0 y
  INITIAL_TIMESTEP_SIZE 1.d0 h
  MAXIMUM_TIMESTEP_SIZE 2.5d-1 y
END

#=========================== regions ==========================================
REGION all
  COORDINATES
    0.d0 0.d0 0.d0
    100.d0 1.d0 1.d0
  /
END

REGION west
  FACE WEST
  COORDINATES
    0.d0 0.d0 0.d0
    0.d0 1.d0 1.d0
  /
END

REGION east
  FACE EAST
  COORDINATES
    100.d0 0.d0 0.d0
    100.d0 1.d0 1.d0
  /
END

REGION middle
  COORDINATE 50.d0 0.5d0 0.5d0
END

#=========================== observation points ===============================
OBSERVATION
  REGION middle
END

#=========================== transport conditions =============================
TRANSPORT_CONDITION initial
  TYPE ZERO_GRADIENT
  CONSTRAINT_LIST
    0.d0 initial
  /
END

TRANSPORT_CONDITION inlet
  TYPE DIRICHLET_ZERO_GRADIENT
  CONSTRAINT_LIST
    0.d0 inlet
  /
END

#=========================== condition couplers ===============================
# initial condition
INITIAL_CONDITION
  TRANSPORT_CONDITION initial
  REGION all
END

BOUNDARY_CONDITION outlet
  TRANSPORT_CONDITION initial
  REGION east
END

BOUNDARY_CONDITION inlet
  TRANSPORT_CONDITION inlet
  REGION west
END

#=========================== stratigraphy couplers ============================
STRATA
  REGION all
  MATERIAL soil1
END


END_SUBSURFACE
