#Description: Gas hydrate regression test: sedimentation and methanogenesis
SIMULATION
  SIMULATION_TYPE SUBSURFACE
  PROCESS_MODELS
    SUBSURFACE_FLOW flow
      MODE HYDRATE
      OPTIONS
        RESTRICT_STATE_CHANGE
      /
    /
  /
END

SUBSURFACE

#=========================== numerical methods ================================
NUMERICAL_METHODS FLOW

  NEWTON_SOLVER
    USE_INFINITY_NORM_CONVERGENCE
  /

END

#=========================== regression =======================================
REGRESSION
  CELL_IDS
    8
  /
END

#=========================== hydrate ==========================================
HYDRATE
  WITH_GIBBS_THOMSON
  ADJUST_SOLUBILITY_WITHIN_GHSZ
  WITH_SEDIMENTATION

  METHANOGENESIS
    NAME ss_methanogenesis
    ALPHA 5.d-3
    K_ALPHA 2241
    LAMBDA 5.d-14
    V_SED 3.17d-11
    SMT_DEPTH 15.d0
  /
  PERM_SCALING_FUNCTION DAI_AND_SEOL
END
#=========================== discretization ===================================
GRID
  TYPE STRUCTURED CARTESIAN
  NXYZ 1 1 10
  DXYZ
    1@1.d0
    1@1.d0
    10@1.d2
  /
 GRAVITY 0.d0 0.d0 -9.8d0
END
#=========================== fluid properties =================================
FLUID_PROPERTY
  PHASE LIQUID
  DIFFUSION_COEFFICIENT 1.d-9
END

FLUID_PROPERTY
  PHASE GAS
  DIFFUSION_COEFFICIENT 2.d-5
END

#=========================== more fluid properties ============================
EOS WATER
  DENSITY IF97
  ENTHALPY IF97
  STEAM_DENSITY IF97
  STEAM_ENTHALPY IF97
  SATURATION_PRESSURE IF97
END

EOS GAS
  DENSITY PR_METHANE
  ENTHALPY IDEAL_METHANE
  VISCOSITY DEFAULT
  HENRYS_CONSTANT METHANE
END


#=========================== material properties ==============================
MATERIAL_PROPERTY soil1
  ID 1
  CHARACTERISTIC_CURVES default
  POROSITY 0.3
  TORTUOSITY 1.0
  ROCK_DENSITY 2600.d0
  THERMAL_CONDUCTIVITY_DRY 2.d0 #W/m-C
  THERMAL_CONDUCTIVITY_WET 2.18d0 #W/m-C
  HEAT_CAPACITY 1000 J/kg-C
  PERMEABILITY
    PERM_ISO 1.d-13
  /
  SOIL_REFERENCE_PRESSURE INITIAL_PRESSURE
  POROSITY_COMPRESSIBILITY 1.d-9
END
#=========================== characteristic curves ============================
CHARACTERISTIC_CURVES default
  SATURATION_FUNCTION IGHCC2_COMP #VAN_GENUCHTEN
    ALPHA 8.d-5
    M 0.45
    LIQUID_RESIDUAL_SATURATION 0.12d0
    MAX_CAPILLARY_PRESSURE 0.d0
  /
  PERMEABILITY_FUNCTION IGHCC2_COMP_LIQ #BURDINE_BC_LIQ
    PHASE LIQUID
    LAMBDA 3
    LIQUID_RESIDUAL_SATURATION 0.12
  /
  PERMEABILITY_FUNCTION IGHCC2_COMP_GAS #BURDINE_BC_GAS
    PHASE GAS
    LAMBDA 3
    LIQUID_RESIDUAL_SATURATION 0.12
    GAS_RESIDUAL_SATURATION 1.d0 #0.02
  /
END
#=========================== output options ===================================
OUTPUT
  UNFILTER_NON_STATE_VARIABLES

  VARIABLES
   TEMPERATURE
   LIQUID_PRESSURE
   GAS_PRESSURE
   LIQUID_SATURATION
   GAS_SATURATION
   HYDRATE_SATURATION
   ICE_SATURATION
   LIQUID_MOLE_FRACTIONS
   POROSITY
  /
END

#=========================== times ============================================
TIME
  FINAL_TIME 100000 y
  INITIAL_TIMESTEP_SIZE 1.d-6 y
  MAXIMUM_TIMESTEP_SIZE 1.d3 y
END

#=========================== regions ==========================================
REGION all
  COORDINATES
    0.d0 0.d0 0.d0
    1.d0 1.d0 1.d3
  /
END

REGION top
  FACE TOP
  COORDINATES
    0.0d0 0.d0 1.d3
    1.0d0 1.d0 1.d3
  /
END

REGION bottom
  FACE BOTTOM
  COORDINATES
    0.d0 0.d0 0.d0
    1.d0 1.d0 0.d0
  /
END
#=========================== flow conditions ==================================
FLOW_CONDITION initial
  TYPE
    LIQUID_PRESSURE HYDROSTATIC
    MOLE_FRACTION DIRICHLET
    TEMPERATURE DIRICHLET
  /
  DATUM 0.d0 0.d0 1.d0
  GRADIENT
    TEMPERATURE 0.d0 0.d0 -0.019d0
  /
  LIQUID_PRESSURE 30.d6
  MOLE_FRACTION 2.d-3 
  TEMPERATURE 22.d0 
END

FLOW_CONDITION top
  TYPE
    LIQUID_PRESSURE HYDROSTATIC
    MOLE_FRACTION DIRICHLET
    TEMPERATURE DIRICHLET
  /
  DATUM 0.d0 0.d0 1.d0
  GRADIENT
    TEMPERATURE 0.d0 0.d0 -0.019d0
  /
  LIQUID_PRESSURE 30.d6
  MOLE_FRACTION 0.d0 
  TEMPERATURE 22.d0 
END

FLOW_CONDITION bottom
  TYPE
    LIQUID_PRESSURE HYDROSTATIC
    MOLE_FRACTION DIRICHLET
    TEMPERATURE DIRICHLET
  /
  DATUM 0.d0 0.d0 1.d0
  GRADIENT
    TEMPERATURE 0.d0 0.d0 -0.019d0
  /
  LIQUID_PRESSURE 30.d6
  MOLE_FRACTION 2.d-3
  TEMPERATURE 22.d0 
END

#=========================== condition couplers ===============================
INITIAL_CONDITION all
  FLOW_CONDITION initial
  REGION all
END

BOUNDARY_CONDITION top
  FLOW_CONDITION top
  REGION top
END

BOUNDARY_CONDITION bottom
  FLOW_CONDITION bottom
  REGION bottom
END

#=========================== stratigraphy couplers ============================
STRATA
  REGION all
  MATERIAL soil1
END

#=========================== convergence criteria  ============================
END_SUBSURFACE
