#Description: 3D test problem for testing chemical reactions
#             based on chemistry from Hammond and Lichtner, WRR, 2010

SIMULATION
  SIMULATION_TYPE SUBSURFACE
  PROCESS_MODELS
    SUBSURFACE_FLOW flow
      MODE WIPP_FLOW
      OPTIONS
        DEFAULT_ALPHA
      /
    /
  /
END

SUBSURFACE

#=========================== numerical methods ================================
NUMERICAL_METHODS FLOW

  TIMESTEPPER
    TS_ACCELERATION 8
    GAS_SAT_GOV_SWITCH_ABS_TO_REL 1.d0
  /

  NEWTON_SOLVER
    LIQUID_RESIDUAL_INFINITY_TOL 1.d-4
    MAX_ALLOW_REL_LIQ_PRES_CHANG_NI 1.d-4
  /

  LINEAR_SOLVER
    KSP_TYPE PREONLY
    PC_TYPE LU
  /

END

#=========================== regression =======================================
REGRESSION
  CELL_IDS
    8
    33
    48
  /
END

#=========================== flow mode ========================================

#=========================== solver options ===================================



#=========================== discretization ===================================
GRID
  TYPE STRUCTURED
  ORIGIN 0.d0 0.d0 0.d0
  NXYZ 5 4 3
  DXYZ
    10. 11. 12. 13. 14.
    13. 12. 11. 10.
    15. 20. 25.
  /
END

#=========================== fluid properties =================================
FLUID_PROPERTY
  DIFFUSION_COEFFICIENT 1.d-9
END

#=========================== datasets =========================================
#=========================== material properties ==============================
MATERIAL_PROPERTY soil1
  ID 1
  POROSITY 0.25d0
  TORTUOSITY 1.d0
  CHARACTERISTIC_CURVES sf1
  PERMEABILITY
    PERM_X 1.d-12
    PERM_Y 1.d-12
    PERM_Z 1.d-13
  /
END

#=========================== characteristic curves ============================
CHARACTERISTIC_CURVES sf1
  SATURATION_FUNCTION VAN_GENUCHTEN
    M 0.286
    ALPHA  1.9401d-4
    LIQUID_RESIDUAL_SATURATION 0.115
  /
  PERMEABILITY_FUNCTION MUALEM_VG_LIQ
    M 0.286
    LIQUID_RESIDUAL_SATURATION 0.115
  /
  PERMEABILITY_FUNCTION MUALEM_VG_GAS
    M 0.286
    LIQUID_RESIDUAL_SATURATION 0.115
    GAS_RESIDUAL_SATURATION 0.05
  /
END

#=========================== output options ===================================
OUTPUT
#  TIMES d 0.001 0.01 0.1 1. 10.
#  PERIODIC TIME 1 d
  VARIABLES
    LIQUID_PRESSURE
    LIQUID_DENSITY
    LIQUID_SATURATION
  /
  TIME_UNITS y
#  FORMAT HDF5
  VELOCITY_AT_CENTER
END

#=========================== times ============================================
TIME
  FINAL_TIME 100.d0 d
  INITIAL_TIMESTEP_SIZE 1.d-6 d
  MAXIMUM_TIMESTEP_SIZE 10.d0 d
END

#=========================== regions ==========================================
REGION all
  COORDINATES
    0.d0 0.d0 0.d0
    60.d0 46.d0 60.d0
  /
END

REGION west
  FACE WEST
  COORDINATES
    0.d0 0.d0 0.d0
    0.d0 46.d0 60.d0
  /
END

REGION east
  FACE EAST
  COORDINATES
    60.d0 0.d0 0.d0
    60.d0 46.d0 60.d0
  /
END

#=========================== flow conditions ==================================
FLOW_CONDITION initial
  TYPE
    LIQUID_PRESSURE HYDROSTATIC
    GAS_SATURATION DIRICHLET
  /
  DATUM 0.d0 0.d0 70.d0
  GRADIENT
    LIQUID_PRESSURE -1.6666667d-2 0.d0 0.d0
  /
  LIQUID_PRESSURE 101325 ! Pa
  GAS_SATURATION 0.d0
END

FLOW_CONDITION east
  TYPE
    LIQUID_PRESSURE HYDROSTATIC
    GAS_SATURATION DIRICHLET
  /
  INTERPOLATION LINEAR
  DATUM LIST
    TIME_UNITS d
    0.d0 0.d0 0.d0 69.d0
    10.d0 0.d0 0.d0 74.d0
    50.d0 0.d0 0.d0 68.d0
    100.d0 0.d0 0.d0 69.d0
  /
  LIQUID_PRESSURE 101325 ! Pa
  GAS_SATURATION 0.d0
END

#=========================== condition couplers ===============================
# initial condition
INITIAL_CONDITION
  FLOW_CONDITION initial
  REGION all
END

# west boundary condition
BOUNDARY_CONDITION west
  FLOW_CONDITION initial
  REGION west
END

# east boundary condition
BOUNDARY_CONDITION east
  FLOW_CONDITION east
  REGION east
END

#=========================== stratigraphy couplers ============================
STRATA
  REGION all
  MATERIAL soil1
END

END_SUBSURFACE
