!==============================================================================
! Test Case 8 - Two-phase Production with Specified Bottom Hole Pressure
! In this two-cell model, water and gas are produced from a well with a fixed
! bottom hole pressure (bhp) of 1e6pa.
! Currently, this is accomplished with the SOURCE_SINK_SANDBOX/WIPP-WELL card.
! The cells are initially set to sw=0.5, pw=1e7pa. No flow B.C. apply.
!
! This is the same as case0008, except a second well is specified, and
! is located in the same cell as the first.
!
! Note: for this case, BRAGFLO uses g=9.79, STP 3.00150E+02  1.01320E+05
!
!==============================================================================

!=========================== flow mode ========================================
SIMULATION
  SIMULATION_TYPE SUBSURFACE
  PROCESS_MODELS
    SUBSURFACE_FLOW flow
      MODE WIPP_FLOW
      OPTIONS
        FIX_UPWIND_DIRECTION
        MAX_PRESSURE_CHANGE 1.d20
        MAX_SATURATION_CHANGE 1.d20
        GAS_COMPONENT_FORMULA_WEIGHT 2.01588D0 ! H2 kg/kmol
      /
    /
  /
END

!==============================================================================
SUBSURFACE
!==============================================================================

!=========================== regression =======================================
REGRESSION
  CELLS
    1
    2
  /
END

!=========================== discretization ===================================
GRID
  TYPE structured
  NXYZ 2 1 1
  DXYZ
    2*10.d0
    10.d0
    10.d0
  /
END

!=========================== fluid properties =================================
FLUID_PROPERTY
  PHASE LIQUID
  DIFFUSION_COEFFICIENT 0.d0
END

FLUID_PROPERTY
  PHASE GAS
  DIFFUSION_COEFFICIENT 0.d0
END

EOS WATER
  DENSITY EXPONENTIAL 996.629 101325.d0 4.45d-10 ! ref_dens ref_pres compres
  VISCOSITY CONSTANT 8.5d-4
  ENTHALPY CONSTANT 1.8890d6
END

EOS GAS
  VISCOSITY CONSTANT 8.92d-6
  HENRYS_CONSTANT CONSTANT 1.d10
  DENSITY IDEAL
END

!=========================== saturation functions =============================
CHARACTERISTIC_CURVES SF1
  SATURATION_FUNCTION BROOKS_COREY
    LAMBDA 0.7D0
    ALPHA  9.869D-6
    LIQUID_RESIDUAL_SATURATION 0.D0
    MAX_CAPILLARY_PRESSURE 0.D0
  /
  PERMEABILITY_FUNCTION BURDINE
    LAMBDA 0.7D0
    LIQUID_RESIDUAL_SATURATION 0.D0
  /
  PERMEABILITY_FUNCTION BURDINE_BC_GAS
    LAMBDA 0.7D0
    LIQUID_RESIDUAL_SATURATION 0.D0
    GAS_RESIDUAL_SATURATION    0.D0
  /
END

!=========================== material properties ==============================
MATERIAL_PROPERTY soil
  ID 1
  CHARACTERISTIC_CURVES SF1
  POROSITY 0.5
  TORTUOSITY 1.                  ! for diffusion calculations.
  ROCK_DENSITY 2650.d0           ! thermal parameter. isothermal ignores this.
  THERMAL_CONDUCTIVITY_DRY 0.5   ! thermal parameter. isothermal ignores this.
  THERMAL_CONDUCTIVITY_WET 2.    ! thermal parameter. isothermal ignores this.
  HEAT_CAPACITY 830.             ! thermal parameter. isothermal ignores this.
  SOIL_COMPRESSIBILITY_FUNCTION BRAGFLO
  BULK_COMPRESSIBILITY 0.d0
  SOIL_REFERENCE_PRESSURE 101325.d0
  PERMEABILITY
    PERM_ISO 1.d-13
  /
END

!=========================== regions ==========================================
REGION all
  COORDINATES
    0.d0 0.d0 0.d0
    20.d0 10.d0 10.d0
  /
END

REGION 1
  BLOCK 1 1 1 1 1 1
END

REGION 2
  BLOCK 2 2 1 1 1 1
END

REGION injection_point
  COORDINATE 5.d0 5.d0 5.d0
END

!=========================== stratigraphy couplers ============================
STRATA
  MATERIAL soil
  REGION all
END

!=========================== flow conditions ==================================
! initial condition
FLOW_CONDITION 1
  TYPE
    LIQUID_PRESSURE DIRICHLET
    LIQUID_SATURATION DIRICHLET
  /
  LIQUID_PRESSURE 10.0e+06
  LIQUID_SATURATION 0.5d0
END

!=========================== condition couplers ===============================
INITIAL_CONDITION
  FLOW_CONDITION 1
  REGION 1
END

INITIAL_CONDITION
  FLOW_CONDITION 1
  REGION 2
END

! bhp producer
SOURCE_SINK_SANDBOX
  MASS_BALANCE
  WIPP-WELL
    COORDINATE 5.d0 5.d0 5.d0
    WELL_PRESSURE 1.d6
    WELL_PRODUCTIVITY_INDEX 5.d-13
  /
  WIPP-WELL
    COORDINATE 5.d0 5.d0 5.d0
    WELL_PRESSURE 1.d6
    WELL_PRODUCTIVITY_INDEX 5.d-13
  /
END

!=========================== observation points ===============================
OBSERVATION
  REGION injection_point
END

!=========================== time stepper options =============================
TIMESTEPPER FLOW
!  DT_FACTOR 2.d0 1.8d0 1.6d0 1.4d0 1.2d0 1.d0 0.8d0 0.6d0 0.4d0
END

!=========================== solver options ===================================
NEWTON_SOLVER FLOW
!  RTOL 1.d-08
!  ATOL 1.d-08
!  STOL 1.d-30       ! Turn off STOL criteria
  MAXIT 20          ! Maximum newton iteration number
END

LINEAR_SOLVER FLOW
!  SOLVER DIRECT
END

!=========================== output options ===================================
skip
OUTPUT
!  PERIODIC_OBSERVATION TIMESTEP 1
  TIMES s 1.d2 2.d2 3.d2 4.d2 5.d2 6.d2 7.d2 8.d2 9.d2 1.d3
!  VELOCITIES
!  FORMAT TECPLOT POINT
  FORMAT HDF5
  VARIABLES
    LIQUID_PRESSURE
    GAS_PRESSURE
    LIQUID_DENSITY
    GAS_DENSITY
    LIQUID_SATURATION
    GAS_SATURATION
!    LIQUID_WELL_FLOW_RATE
!    GAS_WELL_FLOW_RATE
  /
END
noskip

!=========================== times ============================================
TIME
  FINAL_TIME 1.d3 s
  INITIAL_TIMESTEP_SIZE 100.d0 s
  MAXIMUM_TIMESTEP_SIZE 100.d0 s
END

!==============================================================================
END_SUBSURFACE
!==============================================================================
