!==============================================================================
! Test Case 6a - Gas Generation
! In this 2D model, gas is generated using the WIPP_SOURCE_SINK process model.
! 
! This is the same 2D model used in case 5 (no-flow boundary conditions, 
! water-gas initially in capillary-gravity equilibrium).
!
! Note: for this case, BRAGFLO uses g=9.8068, STP 3.00150E+02  1.01320E+05
!
!==============================================================================

!=========================== flow mode ========================================
SIMULATION
  SIMULATION_TYPE SUBSURFACE
  PROCESS_MODELS
    SUBSURFACE_FLOW flow
      MODE WIPP_FLOW
      OPTIONS
        FIX_UPWIND_DIRECTION
        MAX_PRESSURE_CHANGE 1.d20
        MAX_SATURATION_CHANGE 1.d20
        GAS_COMPONENT_FORMULA_WEIGHT 2.01588D0 ! H2 kg/kmol
      /
    /
    WIPP_SOURCE_SINK WIPP
    /
  /
END

!==============================================================================
SUBSURFACE
!==============================================================================


!=========================== regression =======================================

REGRESSION
  CELLS_PER_PROCESS 10
  CELLS
    89
    111
    113
    133
  /
END

!=========================== discretization ===================================
GRID
  TYPE structured
  NXYZ 11 1 21
  DXYZ
    0.5d0 10*1.d0
    1.d0
    1.d0
  /
END

!=========================== fluid properties =================================
FLUID_PROPERTY
  PHASE LIQUID
  DIFFUSION_COEFFICIENT 0.d0
END

FLUID_PROPERTY
  PHASE GAS
  DIFFUSION_COEFFICIENT 0.d0
END

EOS WATER
  DENSITY EXPONENTIAL 1.2200000d+03 1.0132500d+05 3.1000000d-10 ! ref_dens ref_pres compres
  VISCOSITY CONSTANT 2.1000000d-03
  ENTHALPY CONSTANT 1.8890d6
END

EOS GAS
  VISCOSITY CONSTANT 8.9338900d-06
  HENRYS_CONSTANT CONSTANT 1.d10
  DENSITY IDEAL
  
  ! DENSITY RKS
  !   HYDROGEN
  !   TC 4.3600000d+01
  !   PC 2.0470000d+06
  !   AC 0.0000000d+00
  !   A  4.2747000d-01
  !   B  8.6640000d-02
  ! END
  
  
END

!=========================== saturation functions =============================
CHARACTERISTIC_CURVES soil_cc
  SATURATION_FUNCTION BRAGFLO_KRP4
    KPC 2
    LAMBDA 7.0000000d-01
    ALPHA 1.20482d-05
    IGNORE_PERMEABILITY
    LIQUID_RESIDUAL_SATURATION 2.0000000d-01
    GAS_RESIDUAL_SATURATION 1.d-05
    MAX_CAPILLARY_PRESSURE 1.0000000d+08
  END
  
  PERMEABILITY_FUNCTION BRAGFLO_KRP4_LIQ
    PHASE LIQUID
    LAMBDA 7.0000000d-01
    LIQUID_RESIDUAL_SATURATION 2.0000000d-01
    GAS_RESIDUAL_SATURATION 1.d-05
  END
  
  PERMEABILITY_FUNCTION BRAGFLO_KRP4_GAS
    PHASE GAS
    LAMBDA 0.7d0
    LIQUID_RESIDUAL_SATURATION 2.0000000d-01
    GAS_RESIDUAL_SATURATION 1.d-05
  END
END


!=========================== material properties ==============================
MATERIAL_PROPERTY soil
  ID 1
  CHARACTERISTIC_CURVES soil_cc
  POROSITY 0.45
  TORTUOSITY 1.                  ! for diffusion calculations.
  ROCK_DENSITY 2650.d0           ! thermal parameter. isothermal ignores this.
  THERMAL_CONDUCTIVITY_DRY 0.5   ! thermal parameter. isothermal ignores this.
  THERMAL_CONDUCTIVITY_WET 2.    ! thermal parameter. isothermal ignores this.
  HEAT_CAPACITY 830.             ! thermal parameter. isothermal ignores this.
  SOIL_COMPRESSIBILITY_FUNCTION BRAGFLO
  BULK_COMPRESSIBILITY 2.22d-8
  SOIL_REFERENCE_PRESSURE INITIAL_PRESSURE
  PERMEABILITY
    PERM_ISO 1.d-17
  /
END


!=========================== regions ==========================================
REGION all
  COORDINATES
    0.d0 0.d0 0.d0
    10.5d0 1.d0 21.d0
  /
END

REGION WP1
  COORDINATES
    0.d0 0.d0  10.d0
    0.5d0 1.d0 11.d0
  /
END

! Layers
REGION 1
  BLOCK 1 11 1 1 1 1
END

REGION 2
  BLOCK 1 11 1 1 2 2
END

REGION 3
  BLOCK 1 11 1 1 3 3
END

REGION 4
  BLOCK 1 11 1 1 4 4
END

REGION 5
  BLOCK 1 11 1 1 5 5
END

REGION 6
  BLOCK 1 11 1 1 6 6
END

REGION 7
  BLOCK 1 11 1 1 7 7
END

REGION 8
  BLOCK 1 11 1 1 8 8
END

REGION 9
  BLOCK 1 11 1 1 9 9
END

REGION 10
  BLOCK 1 11 1 1 10 10
END

REGION 11
  BLOCK 1 11 1 1 11 11
END

REGION 12
  BLOCK 1 11 1 1 12 12
END

REGION 13
  BLOCK 1 11 1 1 13 13
END

REGION 14
  BLOCK 1 11 1 1 14 14
END

REGION 15
  BLOCK 1 11 1 1 15 15
END

REGION 16
  BLOCK 1 11 1 1 16 16
END

REGION 17
  BLOCK 1 11 1 1 17 17
END

REGION 18
  BLOCK 1 11 1 1 18 18
END

REGION 19
  BLOCK 1 11 1 1 19 19
END

REGION 20
  BLOCK 1 11 1 1 20 20
END

REGION 21
  BLOCK 1 11 1 1 21 21
END


!=========================== stratigraphy couplers ============================
STRATA
  MATERIAL soil
  REGION all
END

!=========================== flow conditions ==================================

! Initial conditions by layer
FLOW_CONDITION 1
  TYPE
    LIQUID_PRESSURE DIRICHLET
    LIQUID_SATURATION DIRICHLET
  /
  LIQUID_PRESSURE 4.08320E+06
  LIQUID_SATURATION 9.999900e-01
END

FLOW_CONDITION 2
  TYPE
    LIQUID_PRESSURE DIRICHLET
    LIQUID_SATURATION DIRICHLET
  /
  LIQUID_PRESSURE 4.07340E+06
  LIQUID_SATURATION 9.999900e-01
END

FLOW_CONDITION 3
  TYPE
    LIQUID_PRESSURE DIRICHLET
    LIQUID_SATURATION DIRICHLET
  /
  LIQUID_PRESSURE 4.06360E+06
  LIQUID_SATURATION 9.999900e-01
END

FLOW_CONDITION 4
  TYPE
    LIQUID_PRESSURE DIRICHLET
    LIQUID_SATURATION DIRICHLET
  /
  LIQUID_PRESSURE 4.05380E+06
  LIQUID_SATURATION 9.999900e-01
END

FLOW_CONDITION 5
  TYPE
    LIQUID_PRESSURE DIRICHLET
    LIQUID_SATURATION DIRICHLET
  /
  LIQUID_PRESSURE 4.04400E+06
  LIQUID_SATURATION 9.999900e-01
END

FLOW_CONDITION 6
  TYPE
    LIQUID_PRESSURE DIRICHLET
    LIQUID_SATURATION DIRICHLET
  /
  LIQUID_PRESSURE 4.03420E+06
  LIQUID_SATURATION 9.999900e-01
END

FLOW_CONDITION 7
  TYPE
    LIQUID_PRESSURE DIRICHLET
    LIQUID_SATURATION DIRICHLET
  /
  LIQUID_PRESSURE 4.02440E+06
  LIQUID_SATURATION 9.999900e-01
END

FLOW_CONDITION 8
  TYPE
    LIQUID_PRESSURE DIRICHLET
    LIQUID_SATURATION DIRICHLET
  /
  LIQUID_PRESSURE 4.01470E+06
  LIQUID_SATURATION 9.999900e-01
END

FLOW_CONDITION 9
  TYPE
    LIQUID_PRESSURE DIRICHLET
    LIQUID_SATURATION DIRICHLET
  /
  LIQUID_PRESSURE 4.00490E+06
  LIQUID_SATURATION 9.999900e-01
END

FLOW_CONDITION 10
  TYPE
    LIQUID_PRESSURE DIRICHLET
    LIQUID_SATURATION DIRICHLET
  /
  LIQUID_PRESSURE 3.99510E+06
  LIQUID_SATURATION 9.999900e-01
END

FLOW_CONDITION 11
  TYPE
    LIQUID_PRESSURE DIRICHLET
    LIQUID_SATURATION DIRICHLET
  /
  LIQUID_PRESSURE 3.98530E+06
  LIQUID_SATURATION 9.999900e-01
END

FLOW_CONDITION 12
  TYPE
    LIQUID_PRESSURE DIRICHLET
    LIQUID_SATURATION DIRICHLET
  /
  LIQUID_PRESSURE 3.9755E+06
  LIQUID_SATURATION 9.999800e-01
END

FLOW_CONDITION 13
  TYPE
    LIQUID_PRESSURE DIRICHLET
    LIQUID_SATURATION DIRICHLET
  /
  LIQUID_PRESSURE 3.9657E+06
  LIQUID_SATURATION 9.972900e-01
END

FLOW_CONDITION 14
  TYPE
    LIQUID_PRESSURE DIRICHLET
    LIQUID_SATURATION DIRICHLET
  /
  LIQUID_PRESSURE 3.9559E+06
  LIQUID_SATURATION 9.919200e-01
END

FLOW_CONDITION 15
  TYPE
    LIQUID_PRESSURE DIRICHLET
    LIQUID_SATURATION DIRICHLET
  /
  LIQUID_PRESSURE 3.9461E+06
  LIQUID_SATURATION 9.866300e-01
END

FLOW_CONDITION 16
  TYPE
    LIQUID_PRESSURE DIRICHLET
    LIQUID_SATURATION DIRICHLET
  /
  LIQUID_PRESSURE 3.9363E+06
  LIQUID_SATURATION 9.814300e-01
END

FLOW_CONDITION 17
  TYPE
    LIQUID_PRESSURE DIRICHLET
    LIQUID_SATURATION DIRICHLET
  /
  LIQUID_PRESSURE 3.9265E+06
  LIQUID_SATURATION 9.763100e-01
END

FLOW_CONDITION 18
  TYPE
    LIQUID_PRESSURE DIRICHLET
    LIQUID_SATURATION DIRICHLET
  /
  LIQUID_PRESSURE 3.9167E+06
  LIQUID_SATURATION 9.712700e-01
END

FLOW_CONDITION 19
  TYPE
    LIQUID_PRESSURE DIRICHLET
    LIQUID_SATURATION DIRICHLET
  /
  LIQUID_PRESSURE 3.9069E+06
  LIQUID_SATURATION 9.663100e-01
END

FLOW_CONDITION 20
  TYPE
    LIQUID_PRESSURE DIRICHLET
    LIQUID_SATURATION DIRICHLET
  /
  LIQUID_PRESSURE 3.8971E+06
  LIQUID_SATURATION 9.614300e-01
END

FLOW_CONDITION 21
  TYPE
    LIQUID_PRESSURE DIRICHLET
    LIQUID_SATURATION DIRICHLET
  /
  LIQUID_PRESSURE 3.8873E+06
  LIQUID_SATURATION 9.566200e-01
END

!=========================== condition couplers ===============================
INITIAL_CONDITION
  FLOW_CONDITION 1
  REGION 1
END

INITIAL_CONDITION
  FLOW_CONDITION 2
  REGION 2
END

INITIAL_CONDITION
  FLOW_CONDITION 3
  REGION 3
END

INITIAL_CONDITION
  FLOW_CONDITION 4
  REGION 4
END

INITIAL_CONDITION
  FLOW_CONDITION 5
  REGION 5
END

INITIAL_CONDITION
  FLOW_CONDITION 6
  REGION 6
END

INITIAL_CONDITION
  FLOW_CONDITION 7
  REGION 7
END

INITIAL_CONDITION
  FLOW_CONDITION 8
  REGION 8
END

INITIAL_CONDITION
  FLOW_CONDITION 9
  REGION 9
END

INITIAL_CONDITION
  FLOW_CONDITION 10
  REGION 10
END

INITIAL_CONDITION
  FLOW_CONDITION 11
  REGION 11
END

INITIAL_CONDITION
  FLOW_CONDITION 12
  REGION 12
END

INITIAL_CONDITION
  FLOW_CONDITION 13
  REGION 13
END

INITIAL_CONDITION
  FLOW_CONDITION 14
  REGION 14
END

INITIAL_CONDITION
  FLOW_CONDITION 15
  REGION 15
END

INITIAL_CONDITION
  FLOW_CONDITION 16
  REGION 16
END

INITIAL_CONDITION
  FLOW_CONDITION 17
  REGION 17
END

INITIAL_CONDITION
  FLOW_CONDITION 18
  REGION 18
END

INITIAL_CONDITION
  FLOW_CONDITION 19
  REGION 19
END

INITIAL_CONDITION
  FLOW_CONDITION 20
  REGION 20
END

INITIAL_CONDITION
  FLOW_CONDITION 21
  REGION 21
END

!=========================== solver options ===================================
NEWTON_SOLVER FLOW
!  RTOL 1.d-08
!  ATOL 1.d-08
!  STOL 1.d-30       ! Turn off STOL criteria
  MAXIT 20          ! Maximum newton iteration number
END

LINEAR_SOLVER FLOW
!  SOLVER DIRECT
END

!=========================== output options ===================================
skip
OUTPUT
  SNAPSHOT_FILE
    ! PERIODIC TIME 10 y
    ! USER REQUESTED PRINTOUT TIMES
    TIMES s \
      0.00000E+00 3.15569E+08 6.31139E+08 9.46708E+08 1.26228E+09 \
      1.57785E+09 1.89342E+09 2.20899E+09 2.52455E+09 2.84012E+09 \
      3.15569E+09 3.47126E+09 3.78683E+09 4.10240E+09 4.41797E+09 \
      4.73354E+09
    FORMAT HDF5
    VARIABLES
      LIQUID_PRESSURE
      LIQUID_SATURATION
      GAS_PRESSURE
      GAS_SATURATION
    /
  /
END
noskip

!=========================== times ============================================
TIME
  FINAL_TIME 4.73354d+09 s ! TMAX
  INITIAL_TIMESTEP_SIZE 1.d0 s    ! DT_INIT in BF: BF units are all in seconds
  MAXIMUM_TIMESTEP_SIZE 1.d7 s    ! DT_MAX in BF: BF units are all in seconds
END

!==============================================================================
END_SUBSURFACE
!==============================================================================


!=========================== WIPP Source Sink =================================

WIPP_SOURCE_SINK
  BRUCITEC  5.40958610500549d-08  ![mol-MgOH2/kg-MgO/s] MgO inundated hydration rate in Salado brine
  BRUCITEH  1.90935050526199d-08  ![mol-MgOH2/kg-MgO/s] MgO humid hydration rate
  HYMAGCON  6.47595498826265d-10  ![mol-hydromag/kg-hydromag/s] hydromagnesite to magnesite conversion rate
  SAT_WICK  0.322252637147903d0   ![-] wicking saturation parameter
  GRATMICI  2.38570594086619d-10  ![mol-cell/kg-cell/s] inundated biodegradation rate for cellulose
  GRATMICH  0.d0 !! 3.38837738770187d-11  ![mol-cell/kg-cell/s] humid biodegradation rate for cellulose
  CORRMCO2  6.67748215472072d-15  ![m/s] inundated steel corrosion rate without microbial gas generation
  HUMCORR   0.d0    ![m/s] humid steel corrosion rate
  ASDRUM    6.d0    ![m2] surface area of corrodable metal per drum
  ALPHARXN -1.d3    ![-]
  SOCMIN    1.5d-2  ![-]
  BIOGENFC  0.725563609600067   ![-]
  PROBDEG   1       ![-]

  STOICHIOMETRIC_MATRIX
  # hydro  H2     H2O       Fe      Cell   FeOH2  FeS    MgO    MgOH2  MgCO3 
    0.0d0  1.0d0 -2.0d0     -1.0d0  0.0d0  1.0d0  0.0d0  0.0d0  0.0d0  0.0d0 # anoxic iron corrosion reaction
    0.0d0  0.0d0  0.91293d0  0.0d0 -1.0d0  0.0d0  0.0d0  0.0d0  0.0d0  0.0d0 # microbial gas generation reaction
    0.0d0 -1.0d0  2.0d0      0.0d0  0.0d0 -1.0d0  1.0d0  0.0d0  0.0d0  0.0d0 # iron hydroxide sulfidation
    0.0d0  0.0d0  0.0d0     -1.0d0  0.0d0  0.0d0  1.0d0  0.0d0  0.0d0  0.0d0 # metallic iron sulfidation
    0.0d0  0.0d0 -1.0d0      0.0d0  0.0d0  0.0d0  0.0d0 -1.0d0  1.0d0  0.0d0 # MgO hydration
    0.25d0 0.0d0  0.0d0      0.0d0  0.0d0  0.0d0  0.0d0  0.0d0 -1.25d0 0.0d0 # Mg(OH)2 (brucite) carbonation
    0.0d0  0.0d0  0.0d0      0.0d0  0.0d0  0.0d0  0.0d0 -1.0d0  0.0d0  1.0d0 # MgO carbonation
   -1.0d0  0.0d0  4.0d0      0.0d0  0.0d0  0.0d0  0.0d0  0.0d0  1.0d0  4.0d0 # hydromagnesite conversion
  END 
  # note: multiple inventories may be included, but here there is only one
  INVENTORY INV1 #each inventory is specific to region it is going in, so SCALE_BY_VOLUME when using whole repo inventory
    VREPOS     438406.08 m^3 ! optional - only needed if a WASTE_PANEL including this inventory needs to SCALE_BY_VOLUME
    SOLIDS #total kg in repository
      IRONCHW  1.09d7 kg   ! mass of Fe-based material in CH waste
      IRONRHW  1.35d6 kg   ! mass of Fe-based material in RH waste
      IRNCCHW  3.00d7 kg   ! mass of Fe containers for CH waste
      IRNCRHW  6.86d6 kg   ! mass of Fe containers for RH waste
      CELLCHW  3.55d6 kg   ! mass of cellulosics in CH waste
      CELLRHW  1.18d5 kg   ! mass of cellulosics in RH waste
      CELCCHW  7.23d5 kg   ! mass of cellulosics in container materials for CH waste
      CELCRHW  0.d0   kg   ! mass of cellulosics in container materials for RH waste
      CELECHW  2.60d5 kg   ! mass of cellulosics in emplacement materials for CH waste
      CELERHW  0.d0   kg   ! mass of cellulosics in emplacement materials for RH waste
      RUBBCHW  1.09d6 kg   ! mass of rubber in CH waste
      RUBBRHW  8.80d4 kg   ! mass of rubber in RH waste
      RUBCCHW  6.91d4 kg   ! mass of rubber in container materials for CH waste
      RUBCRHW  4.18d3 kg   ! mass of rubber in container materials for RH waste
      RUBECHW  0.d0   kg   ! mass of rubber in emplacement materials for CH waste
      RUBERHW  0.d0   kg   ! mass of rubber in emplacement materials for RH waste
      PLASCHW  5.20d6 kg   ! mass of plastics in CH waste
      PLASRHW  2.93d5 kg   ! mass of plastics in RH waste
      PLSCCHW  2.47d6 kg   ! mass of plastics in container materials for CH waste
      PLSCRHW  3.01d5 kg   ! mass of plastics in container materials for RH waste
      PLSECHW  1.25d6 kg   ! mass of plastics in emplacement materials for CH waste
      PLSERHW  0.d0   kg   ! mass of plastics in emplacement materials for RH waste
      PLASFAC  1.7d0       ! mass ratio of plastics to equivalent carbon
      MGO_EF   1.2d0       ! MgO excess factor: ratio mol-MgO/mol-Organic-C
      DRMCONC  1.8669852   ! [-/m3] number of metal drums per m3 in a panel in ideal packing (DRROOM/VROOM = 6804/3644.378))
    END
    AQUEOUS
      NITRATE 2.74d7   ! moles in panel  QINIT[B:32]
      SULFATE 4.91d6   ! moles in panel  QINIT[B:31]
    END
  END
  
  WASTE_PANEL WP1
    REGION WP1
    INVENTORY INV1
    SCALE_BY_VOLUME YES
  END
  
  ! WASTE_PANEL WP2
  !   REGION WP2
  !   INVENTORY INV1
  !   SCALE_BY_VOLUME YES
  ! END
  
!==============================================================================
END_WIPP_SOURCE_SINK
!==============================================================================