!==============================================================================
! Test Case 11 - Pressure and Density of Water Column in Equilibrium
! This 1D vertical model simply calculates the equilibrium (static) 
! pressure and density of a column of water.
! The initial conditions are sw=0.99999999, pw=1e7pa.  
!
! Note: for this case, BRAGFLO uses g=9.79, STP 3.00150E+02  1.0E+05
! Added EOS GAS gas viscosity in this deck
!
!==============================================================================

!=========================== flow mode ========================================
SIMULATION
  SIMULATION_TYPE SUBSURFACE
  PROCESS_MODELS
    SUBSURFACE_FLOW flow
      MODE WIPP_FLOW
      OPTIONS
        FIX_UPWIND_DIRECTION
        MAX_PRESSURE_CHANGE 1.d20
        MAX_SATURATION_CHANGE 1.d20
        GAS_COMPONENT_FORMULA_WEIGHT 2.01588D0 ! H2 kg/kmol
      /
    /
  /
END

!==============================================================================
SUBSURFACE
!==============================================================================

!=========================== regression =======================================
REGRESSION
  CELLS_PER_PROCESS 7
  CELLS
    1
    10
  /
END

!=========================== discretization ===================================
GRID
  TYPE structured cylindrical
  NXYZ 1 1 50
  DXYZ
    1.0
    1.0
    10.0
  /
END

!=========================== fluid properties =================================
FLUID_PROPERTY
  PHASE LIQUID
  DIFFUSION_COEFFICIENT 0.d0
END

FLUID_PROPERTY
  PHASE GAS
  DIFFUSION_COEFFICIENT 0.d0
END

EOS WATER
  DENSITY EXPONENTIAL 1000.0 101320.d0 1.0e-8 ! ref_dens ref_pres compres
  VISCOSITY CONSTANT 1.00000E-03
  ENTHALPY CONSTANT 1.8890d6
END

EOS GAS
  VISCOSITY CONSTANT 1.0E-5
  HENRYS_CONSTANT CONSTANT 1.d10
  DENSITY IDEAL
END

!=========================== saturation functions =============================
CHARACTERISTIC_CURVES SF1
  SATURATION_FUNCTION BROOKS_COREY
    SMOOTH
    LAMBDA 0.7D0
    ALPHA  1.D30
    LIQUID_RESIDUAL_SATURATION 0.0d+0
    MAX_CAPILLARY_PRESSURE  1.d8
  /
  PERMEABILITY_FUNCTION BURDINE_BC_LIQ
    LAMBDA 0.7D0
    LIQUID_RESIDUAL_SATURATION 0.0d+0
  /
  PERMEABILITY_FUNCTION BURDINE_BC_GAS
    LAMBDA 0.7D0
    LIQUID_RESIDUAL_SATURATION 0.0d+0
    GAS_RESIDUAL_SATURATION    0.0d+0
  /
END

!=========================== material properties ==============================
MATERIAL_PROPERTY ROCK
  ID 1
  CHARACTERISTIC_CURVES SF1
  POROSITY 0.30d0
  TORTUOSITY 1.                  ! for diffusion calculations.
  ROCK_DENSITY 2650.d0           ! thermal parameter. isothermal ignores this.
  THERMAL_CONDUCTIVITY_DRY 0.5   ! thermal parameter. isothermal ignores this.
  THERMAL_CONDUCTIVITY_WET 2.    ! thermal parameter. isothermal ignores this.
  HEAT_CAPACITY 830.             ! thermal parameter. isothermal ignores this.
  SOIL_COMPRESSIBILITY_FUNCTION BRAGFLO
  BULK_COMPRESSIBILITY 1.d-8     ! should be zero
  SOIL_REFERENCE_PRESSURE 101325.d0
  PERMEABILITY
    PERM_ISO 1.0d-10
  /
END


!=========================== regions ==========================================
REGION all
  COORDINATES
    0.d0 0.d0 0.d0
    1.d0 1.d0 500.d0
  /
END

!=========================== stratigraphy couplers ============================
STRATA
  REGION all
  MATERIAL ROCK
END

!=========================== flow conditions ==================================
FLOW_CONDITION initial
  TYPE
    LIQUID_PRESSURE DIRICHLET
    LIQUID_SATURATION DIRICHLET
  /
  LIQUID_PRESSURE 1.D7
  LIQUID_SATURATION 1.d0
END

!=========================== condition couplers ===============================
! initial condition
INITIAL_CONDITION
  FLOW_CONDITION initial
  REGION all
END

!========================== solver ============================================
NEWTON_SOLVER FLOW
!  RTOL 1.d-08
!  ATOL 1.d-08
!  STOL 1.d-30       ! Turn off STOL criteria
  MAXIT 20          ! Maximum newton iteration number
END

LINEAR_SOLVER FLOW
!  SOLVER DIRECT
END

!=========================== output options ===================================
skip
OUTPUT
  FORMAT HDF5
END
noskip

!=========================== times ============================================
TIME
  FINAL_TIME 1.d6 s
  INITIAL_TIMESTEP_SIZE 1.d1 s
  MAXIMUM_TIMESTEP_SIZE 1.d5 s
END

!==============================================================================
END_SUBSURFACE
!==============================================================================

