!==============================================================================
! Test Case 6c - Fracturing of Interbeds
! In this 1D, 10-cell model, water is injected in the third cell from the left
! for 0.5yr at 1e-5kg/s, then produced for 0.5yr at -5e-6kg/s.
! (The VV document incorrect states the productoin rate as 1e-5kg/s).
! The ensuing pressure increase/decrease enduces fracture dilation/contraction.
! The cells are water saturated (sw=1). 
! The initial water pressure is 1e6Pa for the left 5 cells, 
! and 2e6Pa for the right 5 cells.
! The default no-flow boundary conditions apply.
!
! Note: for this case, BRAGFLO uses g=9.8068, STP 3.00150E+02  1.01325E+05
!
!==============================================================================

!=========================== flow mode ========================================
SIMULATION
  SIMULATION_TYPE SUBSURFACE
  PROCESS_MODELS
    SUBSURFACE_FLOW flow
      MODE WIPP_FLOW
      OPTIONS
        FIX_UPWIND_DIRECTION
        MAX_PRESSURE_CHANGE 1.d20
        MAX_SATURATION_CHANGE 1.d20
        GAS_COMPONENT_FORMULA_WEIGHT 2.01588D0 ! H2 kg/kmol
      /
    /
  /
END

!==============================================================================
SUBSURFACE
!==============================================================================


!=========================== regression =======================================
REGRESSION
  CELLS
    1
    3
    6
  /
END


!=========================== discretization ===================================
GRID
  TYPE structured
  NXYZ 10 1 1
  DXYZ
    10*10
    1*10
    1*1
  /
END

!=========================== fluid properties =================================
FLUID_PROPERTY
  PHASE LIQUID
  DIFFUSION_COEFFICIENT 0.d0
END

FLUID_PROPERTY
  PHASE GAS
  DIFFUSION_COEFFICIENT 0.d0
END

EOS WATER
  DENSITY EXPONENTIAL 1.2200E+03 101325.d0 3.1000E-10 ! ref_dens ref_pres compres
  VISCOSITY CONSTANT 2.10000E-03
  ENTHALPY CONSTANT 1.8890d6
END

EOS GAS
  VISCOSITY CONSTANT 8.93389E-06
  HENRYS_CONSTANT CONSTANT 1.d10
  DENSITY IDEAL
END

!=========================== saturation functions =============================
CHARACTERISTIC_CURVES SF_MB138
  SATURATION_FUNCTION BROOKS_COREY
    SMOOTH
    LAMBDA 6.4360d-01
    ALPHA  1.0264d-06
    LIQUID_RESIDUAL_SATURATION 8.36200d-02
    MAX_CAPILLARY_PRESSURE 1.00000d+08
  /
  PERMEABILITY_FUNCTION BURDINE_BC_LIQ
    LAMBDA 6.43600d-01
    LIQUID_RESIDUAL_SATURATION 8.36200d-02
  /
  PERMEABILITY_FUNCTION BURDINE_BC_GAS
    LAMBDA 6.43600d-01
    LIQUID_RESIDUAL_SATURATION 8.36200d-02
    GAS_RESIDUAL_SATURATION    7.71100d-02
  /
END

!=========================== material properties ==============================
MATERIAL_PROPERTY S_MB138
  ID 1
  CHARACTERISTIC_CURVES SF_MB138
  POROSITY 1.10000d-02
  TORTUOSITY 1.                  ! for diffusion calculations.
  ROCK_DENSITY 2650.d0           ! thermal parameter. isothermal ignores this.
  THERMAL_CONDUCTIVITY_DRY 0.5   ! thermal parameter. isothermal ignores this.
  THERMAL_CONDUCTIVITY_WET 2.    ! thermal parameter. isothermal ignores this.
  HEAT_CAPACITY 830.             ! thermal parameter. isothermal ignores this.
  SOIL_COMPRESSIBILITY_FUNCTION BRAGFLO
  BULK_COMPRESSIBILITY 8.263d-11
  SOIL_REFERENCE_PRESSURE INITIAL_PRESSURE
  PERMEABILITY
    ! PERM_ISO 1.28825d-19
    PERM_ISO_LOG10 -18.89d0
  /
  ! Turn on fracturing
  WIPP-FRACTURE
    INITIATING_PRESSURE 2.000000d+05
    ALTERED_PRESSURE 3.800000d+06
    MAXIMUM_FRACTURE_POROSITY 5.000000E-02
    FRACTURE_EXPONENT 1.576329E+01
    ALTER_PERM_X
    ALTER_PERM_Y
  /
END

!=========================== regions ==========================================
REGION all
  COORDINATES
    0.d0 0.d0 0.d0
    100.d0  10.d0  1.d0
  /
END

! left half
REGION R_MB138
  BLOCK 1 6 1 1 1 1
END

! right half
REGION R_MB138_2
  BLOCK 6 10 1 1 1 1
END

REGION injection_point
  BLOCK 3 3 1 1 1 1    ! WELL DATA in BF
END

!=========================== stratigraphy couplers ============================
STRATA
  MATERIAL S_MB138
  REGION R_MB138
END

STRATA
  MATERIAL S_MB138
  REGION R_MB138_2
END

!=========================== flow conditions ==================================

! Initial conditions
FLOW_CONDITION FC_MB138
  TYPE
    LIQUID_PRESSURE DIRICHLET
    LIQUID_SATURATION DIRICHLET
  /
  LIQUID_PRESSURE 1.000000E+06
  LIQUID_SATURATION 1.d0
END

FLOW_CONDITION FC_MB138_2
  TYPE
    LIQUID_PRESSURE DIRICHLET
    LIQUID_SATURATION DIRICHLET
  /
  LIQUID_PRESSURE 2.000000E+06
  LIQUID_SATURATION 1.d0
END

! well
FLOW_CONDITION well  ! INJQ in BF
  TYPE
    RATE mass_rate
  /
  SYNC_TIMESTEP_WITH_UPDATE
  RATE LIST
    TIME_UNITS y
    DATA_UNITS kg/s kg/s MW
    0.d0 1.d-5 0.d0 ! time(y) water(kg/s) gas(kg/s)
    5.d-1 -5.d-6 0.d0 ! time(y) water(kg/s) gas(kg/s) 
  /
END

!=========================== condition couplers ===============================
INITIAL_CONDITION
  FLOW_CONDITION FC_MB138
  REGION R_MB138
END

INITIAL_CONDITION
  FLOW_CONDITION FC_MB138_2
  REGION R_MB138_2
END

SOURCE_SINK well
  FLOW_CONDITION well
  REGION injection_point
END

!========================== solver ============================================
NEWTON_SOLVER FLOW
!  RTOL 1.d-08
!  ATOL 1.d-08
!  STOL 1.d-30       ! Turn off STOL criteria
  MAXIT 20          ! Maximum newton iteration number
END

LINEAR_SOLVER FLOW
!  SOLVER DIRECT
END

!=========================== output options ===================================
OUTPUT
!  PERIODIC_OBSERVATION TIMESTEP 1
!  TIMES y .0010 .0030 .0050 .0100 .0300 .0500 .1000 .3000 .5000\
!   .5010 .5030 .5050 .5100 .5300 .5500 .6000 .8000 1
!  FORMAT HDF5
  VARIABLES
    LIQUID_PRESSURE
    GAS_PRESSURE
    MINERAL_POROSITY
    EFFECTIVE_POROSITY
    LIQUID_DENSITY
    GAS_DENSITY
    LIQUID_SATURATION
    GAS_SATURATION
    PERMEABILITY_X
    PERMEABILITY_Y
    PERMEABILITY_Z
    SOIL_REFERENCE_PRESSURE
  /
END

!=========================== times ============================================
TIME
  FINAL_TIME 1 y ! 0.317... y
  INITIAL_TIMESTEP_SIZE 1.0d0 s
  MAXIMUM_TIMESTEP_SIZE 1 y
END

!==============================================================================
END_SUBSURFACE
!==============================================================================
