!==============================================================================
! Test Case 9 - Heterogeneous Reservoir Conditions
! In this 1D, 15-cell model, water is injected at the left at 0.1kg/s and
! produced at the right at 0.1kg/s. 
! The cells are divided into 3 region, from left to right, with permeabilities
! of 0.25e-11, 1.0e-11, and 0.25e-11 m2.
! The initial conditions are sw=0.99999999, pw=1e6pa. 
! The default no-flow boundary conditions apply.
!
! Note: for this case, BRAGFLO uses g=9.79, STP 300.  1.00E+05
!
! Notes: In this file, injection is specified across the TOP FACE of cell 1,
! and production is specified across the BOTTOM FACE of cell 15.
! Would like to changes this to cell-center COORDINATES (which is how wells
! are specified in BRAGFLO).
!
! Added EOS GAS gas viscosity in this deck
!
!==============================================================================

!=========================== flow mode ========================================
SIMULATION
  SIMULATION_TYPE SUBSURFACE
  PROCESS_MODELS
    SUBSURFACE_FLOW flow
      MODE WIPP_FLOW
      OPTIONS
        FIX_UPWIND_DIRECTION
        MAX_PRESSURE_CHANGE 1.d20
        MAX_SATURATION_CHANGE 1.d20
        GAS_COMPONENT_FORMULA_WEIGHT 2.01588D0 ! H2 kg/kmol
      /
    /
  /
END

!==============================================================================
SUBSURFACE
!==============================================================================

!=========================== regression =======================================
REGRESSION
  CELLS_PER_PROCESS 3
END

!=========================== discretization ===================================
GRID
  TYPE structured
  NXYZ 15 1 1
  DXYZ
    15*1.d0
    1.d0
    1.d0
  /
END

!=========================== fluid properties =================================
FLUID_PROPERTY
  PHASE LIQUID
  DIFFUSION_COEFFICIENT 0.d0
END

FLUID_PROPERTY
  PHASE GAS
  DIFFUSION_COEFFICIENT 0.d0
END

EOS WATER
  DENSITY CONSTANT 1.00E+3 
  VISCOSITY CONSTANT 1.00000E-03  
  ENTHALPY CONSTANT 1.8890d6    
END

EOS GAS
  VISCOSITY CONSTANT 8.92000E-06
  HENRYS_CONSTANT CONSTANT 1.d10
  DENSITY IDEAL
END

!=========================== saturation functions =============================
CHARACTERISTIC_CURVES SF1
  SATURATION_FUNCTION BROOKS_COREY
    SMOOTH
    LAMBDA 0.7D0
    ALPHA  1.D30
    LIQUID_RESIDUAL_SATURATION 0.0d+0
    MAX_CAPILLARY_PRESSURE  1.d8
  /
  PERMEABILITY_FUNCTION BURDINE_BC_LIQ
    LAMBDA 0.7D0
    LIQUID_RESIDUAL_SATURATION 0.0d+0
  /
  PERMEABILITY_FUNCTION BURDINE_BC_GAS
    LAMBDA 0.7D0
    LIQUID_RESIDUAL_SATURATION 0.0d+0
    GAS_RESIDUAL_SATURATION    0.0d+0
  /
END

!=========================== material properties ==============================
MATERIAL_PROPERTY soil1
  ID 1
  CHARACTERISTIC_CURVES SF1
  POROSITY 0.10d0
  TORTUOSITY 1.                  ! for diffusion calculations.
  ROCK_DENSITY 2650.d0           ! thermal parameter. isothermal ignores this.
  THERMAL_CONDUCTIVITY_DRY 0.5   ! thermal parameter. isothermal ignores this.
  THERMAL_CONDUCTIVITY_WET 2.    ! thermal parameter. isothermal ignores this.
  HEAT_CAPACITY 830.             ! thermal parameter. isothermal ignores this.
  SOIL_COMPRESSIBILITY_FUNCTION BRAGFLO
  BULK_COMPRESSIBILITY 1.d-10
  SOIL_REFERENCE_PRESSURE INITIAL_PRESSURE
  PERMEABILITY
    PERM_ISO 1.d-11
  /
  
END

MATERIAL_PROPERTY soil2
  ID 2
  CHARACTERISTIC_CURVES SF1
  POROSITY 0.10d0
  TORTUOSITY 1.                  ! for diffusion calculations.
  ROCK_DENSITY 2650.d0           ! thermal parameter. isothermal ignores this.
  THERMAL_CONDUCTIVITY_DRY 0.5   ! thermal parameter. isothermal ignores this.
  THERMAL_CONDUCTIVITY_WET 2.    ! thermal parameter. isothermal ignores this.
  HEAT_CAPACITY 830.             ! thermal parameter. isothermal ignores this.
  SOIL_COMPRESSIBILITY_FUNCTION BRAGFLO
  BULK_COMPRESSIBILITY 1.d-10
  SOIL_REFERENCE_PRESSURE INITIAL_PRESSURE 
  PERMEABILITY
    PERM_ISO .250d-11
  /
END


!=========================== regions ==========================================
REGION all
  COORDINATES
    0.d0 0.d0 0.d0
    1.5d1 1.d0 1.d0
  /
END

REGION section1
  COORDINATES
    0.d0 0.d0 0.d0
    0.5d1 1.d0 1.d0
  /
END

REGION section2
  COORDINATES
    0.5d1 0.d0 0.d0
    1.0d1 1.d0 1.d0
  /
END

REGION section3
  COORDINATES
    1.0d1 0.d0 0.d0
    1.5d1 1.d0 1.d0
  /
END

REGION rightFace
  COORDINATES
    1.5d1 0.d0 0.d0
    1.5d1 1.d0 1.d0
  /
  FACE east
END

REGION leftFace
  COORDINATES
    0.d0 0.d0 0.d0
    0.d0 1.d0 1.d0
  /
  FACE west
END

REGION injection
  COORDINATES
    0.d0 0.d0 0.d0
    1.d0 1.d0 1.d0
  /
END

REGION production
  COORDINATES
    14.d0 0.d0 0.d0
    15.d0 1.d0 1.d0
  /
END

!=========================== stratigraphy couplers ============================
STRATA
  REGION section1
  MATERIAL soil2
END

STRATA
  REGION section2
  MATERIAL soil1
END

STRATA
  REGION section3
  MATERIAL soil2
END


!=========================== flow conditions ==================================
FLOW_CONDITION initial
  TYPE
    LIQUID_PRESSURE DIRICHLET
    LIQUID_SATURATION DIRICHLET
  /
  LIQUID_PRESSURE 1.d6
  LIQUID_SATURATION 1.d0
END

FLOW_CONDITION injection
  TYPE
    RATE mass_rate
  /
  RATE 0.1d0 0.0d0 kg/s kg/s ! water(kg/s) gas(kg/s)
END

FLOW_CONDITION production
  TYPE
    RATE mass_rate
  /
  RATE -0.1d0 0.0d0 kg/s kg/s  ! water(kg/s) gas(kg/s)
END

!=========================== condition couplers ===============================
! initial condition
INITIAL_CONDITION
  FLOW_CONDITION initial
  REGION all
END

SOURCE_SINK
  FLOW_CONDITION injection
  REGION injection
END

SOURCE_SINK
  FLOW_CONDITION production
  REGION production
END

!========================== solver ============================================
NEWTON_SOLVER FLOW
!  RTOL 1.d-08
!  ATOL 1.d-08
!  STOL 1.d-30       ! Turn off STOL criteria
  MAXIT 20          ! Maximum newton iteration number
END

LINEAR_SOLVER FLOW
!  SOLVER DIRECT
END


!=========================== output options ===================================
skip
OUTPUT
  FORMAT HDF5
END
noskip

!=========================== times ============================================
TIME
  FINAL_TIME 1.d5 s
  INITIAL_TIMESTEP_SIZE 1.d0 s
  MAXIMUM_TIMESTEP_SIZE 1.d4 s
END

!==============================================================================
END_SUBSURFACE
!==============================================================================
