!==============================================================================
! Test Case 2 - Horizontal 1D infiltration
! In this 1d model, the left boundary is held at a fixed water saturation 
! and pressure (sw=1.0, pw=109525Pa), and the right boundary is no-flow (default).
! The reservoir has a constant initial saturation, sw=0.44 (partially saturated).
! The model uses linear relative permeability and capillary pressure functions.
! Note, for GENERAL mode, the (GAS)_MOLE_FRACTION is specified at the left BC 
! instead of the water saturation, and is set to a small value.
! Water then infiltrates as a function of time.
!
! Note: for this case, BRAGFLO uses g=9.79, STP 3.00150E+02  1.01325E+05
!
!==============================================================================

!=========================== flow mode ========================================
SIMULATION
  SIMULATION_TYPE SUBSURFACE
  PROCESS_MODELS
    SUBSURFACE_FLOW flow
      MODE WIPP_FLOW
      OPTIONS
        FIX_UPWIND_DIRECTION
        MAX_PRESSURE_CHANGE 1.d20
        MAX_SATURATION_CHANGE 1.d20
        GAS_COMPONENT_FORMULA_WEIGHT 2.01588D0 ! H2 kg/kmol
      /
    /
  /
END

!==============================================================================
SUBSURFACE
!==============================================================================

!=========================== regression =======================================
REGRESSION
  CELLS_PER_PROCESS 5
  CELLS
    1
    50
  /
END

!=========================== discretization ===================================
GRID
  TYPE structured
  NXYZ 40 1 1
  DXYZ 
    40*0.005
    1.d0 
    1.d0 
  /
END

!=========================== fluid properties =================================
FLUID_PROPERTY
  PHASE LIQUID
  DIFFUSION_COEFFICIENT 0.d0
END

FLUID_PROPERTY
  PHASE GAS
  DIFFUSION_COEFFICIENT 0.d0
END

EOS WATER
  DENSITY CONSTANT 1000.0d0
  VISCOSITY CONSTANT 1.d-3
  ENTHALPY CONSTANT 1.8890d0
END

EOS GAS
  VISCOSITY CONSTANT 8.92d-6
  DENSITY Ideal
  HENRYS_CONSTANT CONSTANT 1.d10
END

!=========================== saturation functions =============================
CHARACTERISTIC_CURVES sf1
  SATURATION_FUNCTION LINEAR
    LIQUID_RESIDUAL_SATURATION 0.3333333d0
    ALPHA 1.d30
    MAX_CAPILLARY_PRESSURE 9807.0
  /
  PERMEABILITY_FUNCTION BURDINE_LINEAR_LIQ
    PHASE LIQUID
    LIQUID_RESIDUAL_SATURATION 0.3333333d0
  /
  PERMEABILITY_FUNCTION BURDINE_LINEAR_GAS
    PHASE GAS
    LIQUID_RESIDUAL_SATURATION 0.33333333d0
    GAS_RESIDUAL_SATURATION 0.0D0
  /
END

!=========================== material properties ==============================
MATERIAL_PROPERTY soil
  ID 1
  CHARACTERISTIC_CURVES sf1
  POROSITY 0.45d0
  TORTUOSITY 1.                  ! for diffusion calculations.
  ROCK_DENSITY 2650.d0           ! thermal parameter. isothermal ignores this.
  THERMAL_CONDUCTIVITY_DRY 0.5   ! thermal parameter. isothermal ignores this.
  THERMAL_CONDUCTIVITY_WET 2.    ! thermal parameter. isothermal ignores this.
  HEAT_CAPACITY 830.             ! thermal parameter. isothermal ignores this.
  PERMEABILITY
    PERM_ISO 1.18d-14
  /
END

!=========================== regions ==========================================
REGION all
  COORDINATES
    0.d0 0.d0 0.d0
    2.d-1 1.d0 1.d0
  /
END

REGION r_left
  FACE west
  COORDINATES
    0.d0 0.d0 0.d0
    0.d0 1.d0 1.d0
  /
END

REGION r_right
  FACE EAST
  COORDINATES
    2.d-1 0.d0 0.d0
    2.d-1 1.d0 1.d0
  /
END

!=========================== stratigraphy couplers ============================
STRATA
  REGION all
  MATERIAL soil
END

!=========================== flow conditions ==================================
FLOW_CONDITION initial
  TYPE
    LIQUID_SATURATION DIRICHLET
    LIQUID_PRESSURE DIRICHLET
  /
  LIQUID_SATURATION 0.44444444d0
  LIQUID_PRESSURE 101325.d0
END

FLOW_CONDITION left
  TYPE
    LIQUID_PRESSURE DIRICHLET
    LIQUID_SATURATION DIRICHLET
  /
  LIQUID_PRESSURE 109525.d0
  LIQUID_SATURATION 1.d0
END

!=========================== condition couplers ===============================
! initial condition
INITIAL_CONDITION
  FLOW_CONDITION initial
  REGION all
END

BOUNDARY_CONDITION
  FLOW_CONDITION left
  REGION r_left
END

!========================== solver ============================================
NEWTON_SOLVER FLOW
!  RTOL 1.d-08
!  ATOL 1.d-08
!  STOL 1.d-30       ! Turn off STOL criteria
  MAXIT 20          ! Maximum newton iteration number
END

LINEAR_SOLVER FLOW
!  SOLVER DIRECT
END

!=========================== output options ===================================
skip
OUTPUT
  FORMAT TECPLOT POINT
  FORMAT HDF5
  TIMES s 864 5184 9504
  VARIABLES
    LIQUID_PRESSURE
    GAS_PRESSURE
    MINERAL_POROSITY
    EFFECTIVE_POROSITY
    LIQUID_DENSITY
    GAS_DENSITY
    LIQUID_SATURATION
    GAS_SATURATION
    PERMEABILITY_X
    PERMEABILITY_Y
    PERMEABILITY_Z
    MAXIMUM_PRESSURE
  /
END
noskip

!=========================== times ============================================
TIME
  FINAL_TIME 9.504d3 s
  INITIAL_TIMESTEP_SIZE 1.d0 s
  MAXIMUM_TIMESTEP_SIZE 1.d2 s
END

!==============================================================================
END_SUBSURFACE
!==============================================================================
