!==============================================================================
! Test Case 6a - Gas Generation
! In this 2D model, gas is generated using the
! SOURCE_SINK_SANDBOX/WIPP-GAS_GENERATION function. 
! The reaction rates in WIPP-GAS_GENERATION only vary with water saturation.
! Currently, the SOURCE_SINK_SANDBOX/WIPP-GAS_GENERATION must be specified
! at a COORDINATE (not over a region).
! This is the same 2D model used in case 5 (no-flow boundary conditions, 
! water-gas initially in capillary-gravity equilibrium).
!
! Note: for this case, BRAGFLO uses g=9.8068, STP 3.00150E+02  1.01320E+05
! need to update SOIL_REFERENCE_PRESSURE 4e6
!
!==============================================================================

!=========================== flow mode ========================================
SIMULATION
  SIMULATION_TYPE SUBSURFACE
  PROCESS_MODELS
    SUBSURFACE_FLOW flow
      MODE WIPP_FLOW
      OPTIONS
        FIX_UPWIND_DIRECTION
        MAX_PRESSURE_CHANGE 1.d20
        MAX_SATURATION_CHANGE 1.d20
        GAS_COMPONENT_FORMULA_WEIGHT 2.01588D0 ! H2 kg/kmol
      /
    /
  /
END

!==============================================================================
SUBSURFACE
!==============================================================================


!=========================== regression =======================================
REGRESSION
  CELLS_PER_PROCESS 2
  CELLS
    89
    111
    113
    133
  /
END

!=========================== discretization ===================================
GRID
  TYPE structured
  NXYZ 11 1 21
  DXYZ
    0.5d0 10*1.d0
    1.d0
    1.d0
  /
END

!=========================== fluid properties =================================
FLUID_PROPERTY
  PHASE LIQUID
  DIFFUSION_COEFFICIENT 0.d0
END

FLUID_PROPERTY
  PHASE GAS
  DIFFUSION_COEFFICIENT 0.d0
END

EOS WATER
  DENSITY EXPONENTIAL 996.629d0 101320.d0 4.45d-10 ! ref_dens ref_pres compres
  VISCOSITY CONSTANT 8.5077d-4
  ENTHALPY CONSTANT 1.8890d6
END

EOS GAS
  VISCOSITY CONSTANT 9.0829d-6
  HENRYS_CONSTANT CONSTANT 1.d10
  DENSITY IDEAL
END

!=========================== saturation functions =============================
CHARACTERISTIC_CURVES sf1
  SATURATION_FUNCTION BROOKS_COREY  !KRP = 4 in BF
    SMOOTH              !required for convergence
    LAMBDA 0.7D0        !LAMBDA in BF
    ALPHA  1.20482D-5   !ALPHA = 1/(PCT_A*PERMX**PCT_EXP) for KRP = 4 in BF
    LIQUID_RESIDUAL_SATURATION 0.2D0  !SOR = 0.2
    MAX_CAPILLARY_PRESSURE 1.D8       !PCMAX = 1.0E+08
  /
  PERMEABILITY_FUNCTION BURDINE
    LAMBDA 0.7D0                      !LAMBDA in BF
    LIQUID_RESIDUAL_SATURATION 0.2D0  !SOR = 0.2
  /
  PERMEABILITY_FUNCTION BURDINE_BC_GAS
    LAMBDA 0.7D0                      !LAMBDA in BF
    LIQUID_RESIDUAL_SATURATION 0.2D0  !SOR = 0.2 in BF
    GAS_RESIDUAL_SATURATION    1.D-5  !SGR = 0.00001 in BF
  /
END


!=========================== material properties ==============================
MATERIAL_PROPERTY soil
  ID 1
  CHARACTERISTIC_CURVES sf1
  POROSITY 0.45
  TORTUOSITY 1.                  ! for diffusion calculations.
  ROCK_DENSITY 2650.d0           ! thermal parameter. isothermal ignores this.
  THERMAL_CONDUCTIVITY_DRY 0.5   ! thermal parameter. isothermal ignores this.
  THERMAL_CONDUCTIVITY_WET 2.    ! thermal parameter. isothermal ignores this.
  HEAT_CAPACITY 830.             ! thermal parameter. isothermal ignores this.
  SOIL_COMPRESSIBILITY_FUNCTION BRAGFLO
  BULK_COMPRESSIBILITY 1.d-8
  SOIL_REFERENCE_PRESSURE 4e6
  PERMEABILITY
    PERM_ISO 1.d-17
  /
END


!=========================== regions ==========================================
REGION all
  COORDINATES
    0.d0 0.d0 0.d0
    10.5d0 1.d0 21.d0
  /
END

! Layers
REGION 1
  BLOCK 1 11 1 1 1 1
END

REGION 2
  BLOCK 1 11 1 1 2 2
END

REGION 3
  BLOCK 1 11 1 1 3 3
END

REGION 4
  BLOCK 1 11 1 1 4 4
END

REGION 5
  BLOCK 1 11 1 1 5 5
END

REGION 6
  BLOCK 1 11 1 1 6 6
END

REGION 7
  BLOCK 1 11 1 1 7 7
END

REGION 8
  BLOCK 1 11 1 1 8 8
END

REGION 9
  BLOCK 1 11 1 1 9 9
END

REGION 10
  BLOCK 1 11 1 1 10 10
END

REGION 11
  BLOCK 1 11 1 1 11 11
END

REGION 12
  BLOCK 1 11 1 1 12 12
END

REGION 13
  BLOCK 1 11 1 1 13 13
END

REGION 14
  BLOCK 1 11 1 1 14 14
END

REGION 15
  BLOCK 1 11 1 1 15 15
END

REGION 16
  BLOCK 1 11 1 1 16 16
END

REGION 17
  BLOCK 1 11 1 1 17 17
END

REGION 18
  BLOCK 1 11 1 1 18 18
END

REGION 19
  BLOCK 1 11 1 1 19 19
END

REGION 20
  BLOCK 1 11 1 1 20 20
END

REGION 21
  BLOCK 1 11 1 1 21 21
END


!=========================== stratigraphy couplers ============================
STRATA
  MATERIAL soil
  REGION all
END

!=========================== flow conditions ==================================

! Initial conditions by layer
FLOW_CONDITION 1
  TYPE
    LIQUID_PRESSURE DIRICHLET
    LIQUID_SATURATION DIRICHLET
  /
  LIQUID_PRESSURE 4.08320E+06
  LIQUID_SATURATION 9.999900e-01
END

FLOW_CONDITION 2
  TYPE
    LIQUID_PRESSURE DIRICHLET
    LIQUID_SATURATION DIRICHLET
  /
  LIQUID_PRESSURE 4.07340E+06
  LIQUID_SATURATION 9.999900e-01
END

FLOW_CONDITION 3
  TYPE
    LIQUID_PRESSURE DIRICHLET
    LIQUID_SATURATION DIRICHLET
  /
  LIQUID_PRESSURE 4.06360E+06
  LIQUID_SATURATION 9.999900e-01
END

FLOW_CONDITION 4
  TYPE
    LIQUID_PRESSURE DIRICHLET
    LIQUID_SATURATION DIRICHLET
  /
  LIQUID_PRESSURE 4.05380E+06
  LIQUID_SATURATION 9.999900e-01
END

FLOW_CONDITION 5
  TYPE
    LIQUID_PRESSURE DIRICHLET
    LIQUID_SATURATION DIRICHLET
  /
  LIQUID_PRESSURE 4.04400E+06
  LIQUID_SATURATION 9.999900e-01
END

FLOW_CONDITION 6
  TYPE
    LIQUID_PRESSURE DIRICHLET
    LIQUID_SATURATION DIRICHLET
  /
  LIQUID_PRESSURE 4.03420E+06
  LIQUID_SATURATION 9.999900e-01
END

FLOW_CONDITION 7
  TYPE
    LIQUID_PRESSURE DIRICHLET
    LIQUID_SATURATION DIRICHLET
  /
  LIQUID_PRESSURE 4.02440E+06
  LIQUID_SATURATION 9.999900e-01
END

FLOW_CONDITION 8
  TYPE
    LIQUID_PRESSURE DIRICHLET
    LIQUID_SATURATION DIRICHLET
  /
  LIQUID_PRESSURE 4.01470E+06
  LIQUID_SATURATION 9.999900e-01
END

FLOW_CONDITION 9
  TYPE
    LIQUID_PRESSURE DIRICHLET
    LIQUID_SATURATION DIRICHLET
  /
  LIQUID_PRESSURE 4.00490E+06
  LIQUID_SATURATION 9.999900e-01
END

FLOW_CONDITION 10
  TYPE
    LIQUID_PRESSURE DIRICHLET
    LIQUID_SATURATION DIRICHLET
  /
  LIQUID_PRESSURE 3.99510E+06
  LIQUID_SATURATION 9.999900e-01
END

FLOW_CONDITION 11
  TYPE
    LIQUID_PRESSURE DIRICHLET
    LIQUID_SATURATION DIRICHLET
  /
  LIQUID_PRESSURE 3.98530E+06
  LIQUID_SATURATION 9.999900e-01
END

FLOW_CONDITION 12
  TYPE
    LIQUID_PRESSURE DIRICHLET
    LIQUID_SATURATION DIRICHLET
  /
  LIQUID_PRESSURE 3.9755E+06
  LIQUID_SATURATION 9.999800e-01
END

FLOW_CONDITION 13
  TYPE
    LIQUID_PRESSURE DIRICHLET
    LIQUID_SATURATION DIRICHLET
  /
  LIQUID_PRESSURE 3.9657E+06
  LIQUID_SATURATION 9.972900e-01
END

FLOW_CONDITION 14
  TYPE
    LIQUID_PRESSURE DIRICHLET
    LIQUID_SATURATION DIRICHLET
  /
  LIQUID_PRESSURE 3.9559E+06
  LIQUID_SATURATION 9.919200e-01
END

FLOW_CONDITION 15
  TYPE
    LIQUID_PRESSURE DIRICHLET
    LIQUID_SATURATION DIRICHLET
  /
  LIQUID_PRESSURE 3.9461E+06
  LIQUID_SATURATION 9.866300e-01
END

FLOW_CONDITION 16
  TYPE
    LIQUID_PRESSURE DIRICHLET
    LIQUID_SATURATION DIRICHLET
  /
  LIQUID_PRESSURE 3.9363E+06
  LIQUID_SATURATION 9.814300e-01
END

FLOW_CONDITION 17
  TYPE
    LIQUID_PRESSURE DIRICHLET
    LIQUID_SATURATION DIRICHLET
  /
  LIQUID_PRESSURE 3.9265E+06
  LIQUID_SATURATION 9.763100e-01
END

FLOW_CONDITION 18
  TYPE
    LIQUID_PRESSURE DIRICHLET
    LIQUID_SATURATION DIRICHLET
  /
  LIQUID_PRESSURE 3.9167E+06
  LIQUID_SATURATION 9.712700e-01
END

FLOW_CONDITION 19
  TYPE
    LIQUID_PRESSURE DIRICHLET
    LIQUID_SATURATION DIRICHLET
  /
  LIQUID_PRESSURE 3.9069E+06
  LIQUID_SATURATION 9.663100e-01
END

FLOW_CONDITION 20
  TYPE
    LIQUID_PRESSURE DIRICHLET
    LIQUID_SATURATION DIRICHLET
  /
  LIQUID_PRESSURE 3.8971E+06
  LIQUID_SATURATION 9.614300e-01
END

FLOW_CONDITION 21
  TYPE
    LIQUID_PRESSURE DIRICHLET
    LIQUID_SATURATION DIRICHLET
  /
  LIQUID_PRESSURE 3.8873E+06
  LIQUID_SATURATION 9.566200e-01
END

!=========================== condition couplers ===============================
INITIAL_CONDITION
  FLOW_CONDITION 1
  REGION 1
END

INITIAL_CONDITION
  FLOW_CONDITION 2
  REGION 2
END

INITIAL_CONDITION
  FLOW_CONDITION 3
  REGION 3
END

INITIAL_CONDITION
  FLOW_CONDITION 4
  REGION 4
END

INITIAL_CONDITION
  FLOW_CONDITION 5
  REGION 5
END

INITIAL_CONDITION
  FLOW_CONDITION 6
  REGION 6
END

INITIAL_CONDITION
  FLOW_CONDITION 7
  REGION 7
END

INITIAL_CONDITION
  FLOW_CONDITION 8
  REGION 8
END

INITIAL_CONDITION
  FLOW_CONDITION 9
  REGION 9
END

INITIAL_CONDITION
  FLOW_CONDITION 10
  REGION 10
END

INITIAL_CONDITION
  FLOW_CONDITION 11
  REGION 11
END

INITIAL_CONDITION
  FLOW_CONDITION 12
  REGION 12
END

INITIAL_CONDITION
  FLOW_CONDITION 13
  REGION 13
END

INITIAL_CONDITION
  FLOW_CONDITION 14
  REGION 14
END

INITIAL_CONDITION
  FLOW_CONDITION 15
  REGION 15
END

INITIAL_CONDITION
  FLOW_CONDITION 16
  REGION 16
END

INITIAL_CONDITION
  FLOW_CONDITION 17
  REGION 17
END

INITIAL_CONDITION
  FLOW_CONDITION 18
  REGION 18
END

INITIAL_CONDITION
  FLOW_CONDITION 19
  REGION 19
END

INITIAL_CONDITION
  FLOW_CONDITION 20
  REGION 20
END

INITIAL_CONDITION
  FLOW_CONDITION 21
  REGION 21
END

! Gas generation source term
SOURCE_SINK_SANDBOX
  WIPP-GAS_GENERATION
    COORDINATE 0.25d0 0.5d0 10.5d0
    INUNDATED_CORROSION_RATE 3d-7  ! RATE CONSTANTS: CORROSION (RKCOR) in BF
    INUNDATED_DEGRADATION_RATE 1.5d-6  ! BIODEGRADATION (RKBIO) in BF
    HUMID_CORROSION_FACTOR 1.0d-3  ! HUMIDITY FACTORS: HUMFAC_COR
    HUMID_DEGRADATION_FACTOR 0.2d0  ! HUMFAC_BIO
    H2_FE_RATIO 1.3081d0  ! S_H2
    H2_CH2O_RATIO 1.1100d0  ! RATE COEFFICIENTS: RXH2S
    ALPHARXN -1.d3
    SOCMIN 1.5d-2
    SATWICK 0.25
  /
END

!=========================== solver options ===================================
NEWTON_SOLVER FLOW
!  RTOL 1.d-08
!  ATOL 1.d-08
!  STOL 1.d-30       ! Turn off STOL criteria
  MAXIT 20          ! Maximum newton iteration number
END

LINEAR_SOLVER FLOW
!  SOLVER DIRECT
END

!=========================== output options ===================================
skip
OUTPUT
  TIMES s 1.d6 1.d7 1.d8 1.d9 5.d9   ! USER REQUESTED PRINTOUT TIMES
  FORMAT HDF5
  VARIABLES
    LIQUID_PRESSURE
    GAS_PRESSURE
    GAS_SATURATION
  /
END
noskip

!=========================== times ============================================
TIME
  FINAL_TIME 5.d9 s ! TMAX
  INITIAL_TIMESTEP_SIZE 1.d0 s    ! DT_INIT in BF: BF units are all in seconds
  MAXIMUM_TIMESTEP_SIZE 1000.d0 s  ! DT_MAX in BF: BF units are all in seconds
  MAXIMUM_TIMESTEP_SIZE 1.d9 s at 5000 s   ! DT_MAX in BF: BF units are all in seconds
END

!==============================================================================
END_SUBSURFACE
!==============================================================================
