!==============================================================================
! Test Case 6d - Klinkenberg Effect
! In this 1D, 10-cell model, gas (H2) is injected at 1e-6kg/s for 1 day.
! The cells are gas saturated (sw=0), and the right boundary has fixed
! gas pressure 101325Pa and gas saturation 1 (MOLE_FRACTION 0.999999).
! The left BC is the default no-flow.
! The Klinkenberg parameters used are a=0 (no perm dependence), b=1.75e5.
! The Klinkenberg effect increases the permeability to gas at low pressures.
!
! Need to define EOS WATER in this deck
!
! Note: for this case, BRAGFLO uses g=9.80665, STP 3.00150E+02  1.01325E+05
!
!==============================================================================

!=========================== flow mode ========================================
SIMULATION
  SIMULATION_TYPE SUBSURFACE
  PROCESS_MODELS
    SUBSURFACE_FLOW flow
      MODE GENERAL
      OPTIONS
        ISOTHERMAL
        TWO_PHASE_ENERGY_DOF TEMPERATURE
        GAS_COMPONENT_FORMULA_WEIGHT 2.01588D0 ! H2 kg/kmol
        MAXIMUM_PRESSURE_CHANGE 5.0D4
        ITOL_RELATIVE_UPDATE 1.d-30  ! Turn off ITOL_RELATIVE_UPDATE
        TOUGH2_ITOL_SCALED_RESIDUAL 1.d-5
      /
    /
  /
END

!==============================================================================
SUBSURFACE
!==============================================================================


!=========================== regression =======================================
REGRESSION
  CELLS_PER_PROCESS 2
END

!=========================== discretization ===================================
GRID
  TYPE structured
  NXYZ 10 1 1
  DXYZ
    1
    1
    1
  /
END

!=========================== fluid properties =================================
FLUID_PROPERTY
  PHASE LIQUID
  DIFFUSION_COEFFICIENT 0.d0
END

FLUID_PROPERTY
  PHASE GAS
  DIFFUSION_COEFFICIENT 0.d0
END

! why are we not defining water eos?
skip
EOS WATER
  DENSITY EXPONENTIAL 1.2200E+03 101325.d0 3.1000E-10 ! ref_dens ref_pres compres
  VISCOSITY CONSTANT 2.10000E-03
  ENTHALPY CONSTANT 1.8890d6
END
noskip

EOS GAS
  VISCOSITY CONSTANT 8.93389E-06
  ! HENRYS_CONSTANT CONSTANT 1.d10
  DENSITY IDEAL
END

! Turn on Klinkenberg
KLINKENBERG_EFFECT
  A 0.00d0 ! permeability exponent
  B 1.75e+5
END

!=========================== saturation functions =============================
CHARACTERISTIC_CURVES SF_BH_OPEN
  SATURATION_FUNCTION LINEAR
    ALPHA  1.d30
    LIQUID_RESIDUAL_SATURATION 0.00000d+00
    MAX_CAPILLARY_PRESSURE 1.00000d+08
  /
  PERMEABILITY_FUNCTION BURDINE_LINEAR_LIQ
    LIQUID_RESIDUAL_SATURATION 0.00000d+00
  /
  PERMEABILITY_FUNCTION BURDINE_LINEAR_GAS
    LIQUID_RESIDUAL_SATURATION 0.00000d+00
    GAS_RESIDUAL_SATURATION    0.00000d+00
  /
END

!=========================== material properties ==============================
MATERIAL_PROPERTY M_BH
  ID 1
  CHARACTERISTIC_CURVES SF_BH_OPEN
  POROSITY 3.0000d-01
  TORTUOSITY 1.                  ! for diffusion calculations.
  ROCK_DENSITY 2650.d0           ! thermal parameter. isothermal ignores this.
  THERMAL_CONDUCTIVITY_DRY 0.5   ! thermal parameter. isothermal ignores this.
  THERMAL_CONDUCTIVITY_WET 2.    ! thermal parameter. isothermal ignores this.
  HEAT_CAPACITY 830.             ! thermal parameter. isothermal ignores this.
  SOIL_COMPRESSIBILITY_FUNCTION BRAGFLO
  BULK_COMPRESSIBILITY 0.0d0
  SOIL_REFERENCE_PRESSURE 101325.d0
  PERMEABILITY
    ! PERM_ISO 1.0d-15
    PERM_ISO_LOG10 -15.d0
  /
END


!=========================== regions ==========================================
REGION all
  COORDINATES
    0.d0 0.d0 0.d0
    10.d0  1.d0  1.d0
  /
END

REGION BH
  BLOCK 1 10 1 1 1 1
END

REGION R_EAST
  FACE EAST
  BLOCK 10 10 1 1 1 1
END

REGION INJ
  BLOCK 1 1 1 1 1 1
END

!=========================== stratigraphy couplers ============================
STRATA
  MATERIAL M_BH
  REGION BH
END

!=========================== flow conditions ==================================
! Initial conditions
FLOW_CONDITION FC_INITIAL
  TYPE
    GAS_PRESSURE DIRICHLET
    MOLE_FRACTION DIRICHLET
    TEMPERATURE DIRICHLET
  /
  GAS_PRESSURE 1.013250E+05
  MOLE_FRACTION 0.999999
  TEMPERATURE 2.70000E+01
END

FLOW_CONDITION FC_EAST
  TYPE
    GAS_PRESSURE DIRICHLET
    MOLE_FRACTION DIRICHLET
    TEMPERATURE DIRICHLET
  /
  GAS_PRESSURE 1.013250E+05
  MOLE_FRACTION 0.999999
  TEMPERATURE 2.70000E+01
END

FLOW_CONDITION well  ! INJQ in BF
  TYPE
    RATE mass_rate
  /
  RATE 0.d0 1.d-6 0.d0 kg/s kg/s MW ! water(kg/s) gas(kg/s) energy(MW)
END

!=========================== condition couplers ===============================
INITIAL_CONDITION
  FLOW_CONDITION FC_INITIAL
  REGION BH
END

BOUNDARY_CONDITION
  FLOW_CONDITION FC_EAST
  REGION R_EAST
END

SOURCE_SINK well
  FLOW_CONDITION well
  REGION INJ
END

!========================== solver ============================================
NEWTON_SOLVER FLOW
  RTOL 1.d-30       ! Turn off RTOL criteria
  ATOL 1.d-30       ! Turn off ATOL criteria
  STOL 1.d-30       ! Turn off STOL criteria
  MAXIT 20          ! Maximum newton iteration number
END

! LINEAR_SOLVER FLOW
!   SOLVER DIRECT
! END

!=========================== output options ===================================
skip
OUTPUT
!  PERIODIC_OBSERVATION TIMESTEP 1
  TIMES s 100 200 300 400 500 600 700 800 900 1000 \
          2000 3000 4000 5000 10000 20000 30000 40000 \
          50000 60000 70000 80000 86400
  FORMAT HDF5
  VARIABLES
    LIQUID_PRESSURE
    GAS_PRESSURE
    MINERAL_POROSITY
    EFFECTIVE_POROSITY
    LIQUID_DENSITY
    GAS_DENSITY
    LIQUID_SATURATION
    GAS_SATURATION
    GAS_MOLE_FRACTIONS
    PERMEABILITY_X
    PERMEABILITY_Y
    PERMEABILITY_Z
    MAXIMUM_PRESSURE
  /
END
noskip

!=========================== times ============================================
TIME
  FINAL_TIME 86400 s
  INITIAL_TIMESTEP_SIZE 1.00E-10 s
  MAXIMUM_TIMESTEP_SIZE 10000 s
END

!==============================================================================
END_SUBSURFACE
!==============================================================================
