  SIMULATION_TYPE SUBSURFACE
  PROCESS_MODELS
    SUBSURFACE_FLOW flow
      MODE GENERAL
    /
    SUBSURFACE_TRANSPORT transport
      MODE GIRT
    /
  /
