#  DKP Black oil test run 6: 3D gas and water injection
#  PO mod to add run Swco = 0.07
SIMULATION
  SIMULATION_TYPE SUBSURFACE
  PROCESS_MODELS
    SUBSURFACE_FLOW Flow
      MODE BLACK_OIL
      OPTIONS
       MAXIMUM_PRESSURE_CHANGE 5.D4
       ISOTHERMAL
      /
    / ! end of subsurface_flow
  / ! end of process models
  !CHECKPOINT
  !/
END  !! end simulation block

SUBSURFACE
#=========================== regression =======================================
REGRESSION
  CELLS
    1
    2
    101
    125
  /
END
#=========================== discretization ===================================
! PV=25000.10.10.2.0.1=0.5D6 rm3
GRID
  TYPE STRUCTURED
  ORIGIN 0.d0 0.d0 -1020.d0
  NXYZ 5 5 5
  DXYZ
   100.0
   100.0
     4.0
  END
END

#=========================set up standard conditions ==========================
#  these are used for the computation of the gas surface volumes
REFERENCE_PRESSURE 1.0D5 Pa
REFERENCE_TEMPERATURE 15.0 !C

#=========================== solver options ===================================
TIMESTEPPER FLOW
  TS_ACCELERATION 100
/

NEWTON_SOLVER FLOW
  STOL 1.0D-8
  RTOL 1.0D-8
  ITOL 1.0D-8
  MAXIT 20
END

LINEAR_SOLVER FLOW
END

#=========================== times ============================================
TIME
  FINAL_TIME 30.0 d
  INITIAL_TIMESTEP_SIZE 1.0d-4 d
  MINIMUM_TIMESTEP_SIZE 1.0D-10 d
  MAXIMUM_TIMESTEP_SIZE 5 d at 0. d
END

#=========================== output options ===================================
skip
OUTPUT
  FORMAT HDF5
  TIMES d 0.0 0.1 0.9 1.0 5.0 20.0 50.0 100.0
  MASS_BALANCE_FILE
    PERIODIC TIMESTEP 1
  END
  OBSERVATION_FILE
    PERIODIC TIMESTEP 1
    VARIABLES
      LIQUID_SATURATION
      LIQUID_DENSITY
      LIQUID_MOBILITY
      LIQUID_VISCOSITY
      OIL_PRESSURE
      OIL_SATURATION
      OIL_DENSITY
      OIL_MOBILITY
      OIL_VISCOSITY
      TEMPERATURE
      POROSITY
      PERMEABILITY_X
    /
  END
END
noskip
#=========================== material properties ==============================
MATERIAL_PROPERTY formation
  ID 1
  POROSITY 0.1
  TORTUOSITY 1.d0
  ROCK_DENSITY 2.350d3
  SPECIFIC_HEAT 1.0d3
  THERMAL_CONDUCTIVITY_DRY 1.541d0
  THERMAL_CONDUCTIVITY_WET 1.541d0
  SOIL_COMPRESSIBILITY_FUNCTION QUADRATIC
  SOIL_COMPRESSIBILITY    1.0d-10 ! 1/Pa
  SOIL_REFERENCE_PRESSURE 1.0D5
  CHARACTERISTIC_CURVES ch1
  PERMEABILITY
    PERM_X 0.9869E-13 !100 mD
    PERM_Y 0.9869E-13 !100 mD
    PERM_Z 0.9869E-14 !10 mD
  /
/

#=========================== datasets ==============================
#=========================== saturation functions =============================
CHARACTERISTIC_CURVES ch1
 CAP_PRESSURE_FUNCTION_OW CONSTANT
  CONSTANT_PRESSURE 0.0
 /
 CAP_PRESSURE_FUNCTION_OG CONSTANT
  CONSTANT_PRESSURE 0.0
 /
! Relative permeabilities
 PERMEABILITY_FUNCTION_WAT MOD_BROOKS_COREY
   M 2.0
   WATER_RESIDUAL_SATURATION 0.15
   WATER_CONNATE_SATURATION  0.07
 END
 PERMEABILITY_FUNCTION_OIL ECLIPSE
  PERMEABILITY_FUNCTION_OW MOD_BROOKS_COREY
   M 2.0
   OIL_RESIDUAL_SATURATION 0.1
  END
  PERMEABILITY_FUNCTION_OG MOD_BROOKS_COREY
   M 2.0
   OIL_RESIDUAL_SATURATION 0.02
  END
 END
 PERMEABILITY_FUNCTION_GAS MOD_BROOKS_COREY
  GAS_CONNATE_SATURATION    0.0
  GAS_RESIDUAL_SATURATION   0.05
  M 2.0
 END
/
#=========================== EOSs =============================================
EOS WATER
  SURFACE_DENSITY 1000.0 kg/m^3
  DENSITY CONSTANT 1000.00d0
  VISCOSITY CONSTANT 1.0d-3 ! 1 cp
END

EOS OIL
  FORMULA_WEIGHT 800.0d0
  SURFACE_DENSITY 700.0 kg/m^3
  PVCO
    DATA_UNITS ! Metric in the Eclipse sense
      PRESSURE Bar           !Bar is default
      RS  m^3/m^3            !m^3/m^3 is default
      FVF m^3/m^3            !m^3/m^3 is default
      VISCOSITY cP           !cP default
      COMPRESSIBILITY 1/Bar  !1/Bar is default
      VISCOSIBILITY   1/Bar  !1/Bar is default
    END
    DATA
      TEMPERATURE 15.0
         1.013529    0.178 1.0620  1.0400   0.0001985 0.001308
         18.250422  16.119 1.1500  0.9750   0.0001985 0.001308
         35.487314  32.059 1.2070  0.9100   0.0001985 0.001308
         69.961099  66.078 1.2950  0.8300   0.0001985 0.001308
        138.908669 113.277 1.4350  0.6950   0.0001985 0.001308
        173.382454 138.277 1.5000  0.6410   0.0001985 0.001308
        207.856239 165.640 1.5650  0.5940   0.0001985 0.001308
        276.803809 226.197 1.6950  0.5100   0.0001985 0.001308
        345.751379 288.178 1.8270  0.4490   0.0001985 0.001308
        621.541659 531.473 2.3570  0.2030   0.0001985 0.001308
      END !end TEMP block
      !TEMPERATURES 30.0 C
      !END
    END !endDATA
  END !end PVDO
  ENTHALPY QUADRATIC_TEMP ! h = c1*(t-t1) + 0.5*c2*(t-t2)
    TEMP_REF_VALUES   15.6d0  15.6d0    !t1, t2 [°C]
    TEMP_COEFFICIENTS  0.0     0.0d0    !c1, c2 [J/kg/°C]
  END !end Enthlapy
END !end EOS OIL

EOS GAS
  FORMULA_WEIGHT 16.04d0
  SURFACE_DENSITY 0.678366 kg/m^3
  PVDG
    DATA_UNITS ! Metric in the Eclipse sense
      PRESSURE  Bar
      FVF       m^3/m^3
      VISCOSITY cP
    END
    DATA
      TEMPERATURE 15.0
          1.013529 0.9357635 0.0080
         18.250422 0.0678972 0.0096
         35.487314 0.0352259 0.0112
         69.961099 0.0179498 0.0140
        138.908669 0.0090619 0.0189
        173.382454 0.0072653 0.0208
        207.856239 0.0060674 0.0228
        276.803809 0.0045534 0.0268
        345.751379 0.0036439 0.0309
        621.541659 0.0021672 0.0470
      END !end TEMP block
    END !endDATA
    !specify temperature dependency for viscosity
  END !end PVDG
END

#=========================== regions ==========================================
REGION all
COORDINATES
-1.d20 -1.d20 -1.d20
 1.d20  1.d20  1.d20
/
/

REGION injg
 BLOCK  1 1 1 1 5 5
END

REGION injw
 BLOCK  1 1 1 1 1 1
END

REGION obs_inje
 BLOCK  1 1 1 1 1 5
END

REGION obs_prod
 BLOCK 5 5 5 5 1 5
END

REGION EAST
  FACE EAST
  COORDINATES
    500 400.d0 -900.d0
    500 500.d0 -1900.d0
  /
END
#=========================== observation ============================

OBSERVATION
  REGION obs_inje
END

OBSERVATION
  REGION obs_prod
END

#=========================== wells ==================================
FLOW_CONDITION gas_injector_cond
  TYPE
    RATE volumetric_rate
    TEMPERATURE DIRICHLET
  /
  RATE 0.0 0.0 200 0 m^3/day m^3/day m^3/day MW
  TEMPERATURE 15.0 C
/

FLOW_CONDITION water_injector_cond
  TYPE
    RATE volumetric_rate
    TEMPERATURE DIRICHLET
  /
  RATE 300 0.0 0 0 m^3/day m^3/day m^3/day MW
  TEMPERATURE 15.0 C
/
#=========================== flow conditions ==================================

FLOW_CONDITION initial_press
  TYPE
    OIL_PRESSURE DIRICHLET
    OIL_SATURATION DIRICHLET
   ! GAS_SATURATION DIRICHLET
    BUBBLE_POINT DIRICHLET
    TEMPERATURE DIRICHLET
  /
  OIL_PRESSURE  20.0D6 !200bars
  OIL_SATURATION 0.93d0
  BUBBLE_POINT  10.0D6 !100bars
  TEMPERATURE   15.0d0 C  !up to here it refers to primary vars
  DATUM 0.d0 0.d0 -1020.0d0
/

#=========================== condition couplers ==============================
INITIAL_CONDITION initial
FLOW_CONDITION initial_press
REGION all
/

SOURCE_SINK gas_injection1
  FLOW_CONDITION gas_injector_cond
  REGION injg
END

SOURCE_SINK water_injection1
  FLOW_CONDITION water_injector_cond
  REGION injw
END

BOUNDARY_CONDITION output
  FLOW_CONDITION initial_press
  REGION EAST
END

#=========================== stratigraphy couplers ============================
STRATA
  REGION all
  MATERIAL formation
END

END_SUBSURFACE
