# This regression test includes transport in a production well that is turned
# on at a later intrusion start time. Transport coupling is quasi-
# implicit with NWT Mode.



!=========================== flow mode ========================================

SIMULATION
  SIMULATION_TYPE SUBSURFACE
  
  PROCESS_MODELS
 
    SUBSURFACE_FLOW flow
      MODE WIPP_FLOW
      OPTIONS
        #ALLOW_NEGATIVE_GAS_PRESSURE
        #HARMONIC_PERMEABILITY_ONLY
        DEFAULT_ALPHA
        GAS_COMPONENT_FORMULA_WEIGHT     2.01588D0 ! H2 kg/kmol
        QUASI_IMPLICIT_WELLBORE_COUPLING
      END
    END

    SUBSURFACE_TRANSPORT  nw_trans
      MODE NWT
    END

    WELL_MODEL well01
      OPTIONS
        TYPE WIPP_DARCY
      /
    END
    
  END
END

!==============================================================================

SUBSURFACE

!=========================== REGRESSION =======================================
REGRESSION
  CELL_IDS
    5
    8
    11
    17
    23
  /
END

#=========================== numerical methods ================================
NUMERICAL_METHODS FLOW

  TIMESTEPPER
    GAS_SAT_CHANGE_TS_GOVERNOR       3.d-1
    GAS_SAT_GOV_SWITCH_ABS_TO_REL    1.d0
    LIQ_PRES_CHANGE_TS_GOVERNOR      5.d5   ! Pa
  /

  NEWTON_SOLVER
    LIQUID_RESIDUAL_INFINITY_TOL     1.d-6
    GAS_RESIDUAL_INFINITY_TOL        1.d-6
    MAX_ALLOW_REL_LIQ_PRES_CHANG_NI  1.d-5
    MAX_ALLOW_REL_GAS_SAT_CHANGE_NI  1.d-4
    REL_GAS_SATURATION_PERTURBATION  1.d-8
    REL_LIQ_PRESSURE_PERTURBATION    1.d-8
    MIN_GAS_SATURATION_PERTURBATION  1.d-10
    MIN_LIQ_PRESSURE_PERTURBATION    1.d-2
    GAS_SAT_THRESH_FORCE_EXTRA_NI    1.d-3
    GAS_SAT_THRESH_FORCE_TS_CUT      0.20d0
    MAX_ALLOW_GAS_SAT_CHANGE_TS      1.0d0
    MIN_LIQ_PRES_FORCE_TS_CUT       -1.d8   ! Pa
    MAX_ALLOW_LIQ_PRES_CHANGE_TS     1.d7   ! Pa
    JACOBIAN_PRESSURE_DERIV_SCALE    1.d7
    SCALE_JACOBIAN
    MAXIMUM_NUMBER_OF_ITERATIONS 10
  /

  LINEAR_SOLVER FLOW
    VERBOSE_LOGGING
    SOLVER FGMRES
    #SOLVER DIRECT MUMPS
    PRECONDITIONER CPR
    MAXIMUM_NUMBER_OF_ITERATIONS 1000
    CPR_OPTIONS
      CPR_EXTRACTION_TYPE ABF
    END
  /

END

NUMERICAL_METHODS TRANSPORT
  TIMESTEPPER
    NUM_STEPS_AFTER_TS_CUT 2
    DT_FACTOR 2.0 2.0 1.8 1.6 1.4 1.4 1.3 1.3 1.2 1.2 1.1 1.1
  /
  NEWTON_SOLVER
    NWT_ITOL_RELATIVE_UPDATE 
      #AM241L  1.0d-1
      PU239L  1.0d-1
    /
    NWT_ITOL_ABSOLUTE_UPDATE 
      #AM241L  1.0d-1
      PU239L  1.0d-1
    /
    NWT_ITOL_SCALED_RESIDUAL
      #AM241L  1.D-3
      PU239L  1.D-4
    /
    NWT_ITOL_ABSOLUTE_RESIDUAL
      #AM241L  1.D-10
      PU239L  1.D-10
    /
    MAXIMUM_NUMBER_OF_ITERATIONS 10
  /
  LINEAR_SOLVER
    SOLVER ITERATIVE
  /
END



!=========================== discretization ===================================

GRID
  GRAVITY 0.0d0  0.0d0  -9.81d0  ! use z as the vertical direction
  TYPE structured
  NXYZ 1 3 15
  DXYZ
     10.0d0 
     10.0d0 
     10.0d0
  /
END

!=========================== regions ==========================================

REGION castiler
  COORDINATES
    -1.d20 -1.d20 -1.d20
     1.d20  1.d20  1.d20
  /
END

REGION bottom
  FACE BOTTOM
  COORDINATES
    -1.d20 -1.d20 0.d0
     1.d20  1.d20 0.0d0
  /
END

REGION top
  FACE TOP
  COORDINATES
    -1.d20 -1.d20 150.d0
     1.d20  1.d20 150.0d0
  /
END

REGION well_all
  COORDINATES
    -1.d20 -1.d20 -1.d20
     1.d20  1.d20  1.d20
  /
END

#REGION sink_test
#  COORDINATES
#     0.d0  0.d0 100.d0
#    10.d0 10.d0 110.d0
#  /
#END

!=========================== datasets =========================================


!=========================== wellbore model ===================================

# All ordering begins at the bottom of the hole and goes towards 
# the top of the hole.
WELLBORE_MODEL

  #SINGLE_PHASE
  TWO_PHASE
  CHECK_FOR_SS
  
  # Uncommenting PRINT_WELL_FILE will create the .well file at each time step
  #PRINT_WELL_FILE

  # Note the SEGMENT_CENTER_Z_VALUES must be provided in ascending order!
  WELL_GRID
    NUMBER_OF_SEGMENTS 14
    TOP_OF_HOLE    5.d0 15.d0 150.0d0   # [x,y,z] in meters
    BOTTOM_OF_HOLE 5.d0 15.d0  10.0d0   # [x,y,z] in meters
  /

  WELL
    DIAMETER 0.03d0
    FRICTION_COEFFICIENT 1.d0
    SKIN_FACTOR 0.d0
    WELL_INDEX 1.d0 1.d0 1.d0 0.d0 0.d0 0.d0 0.d0 0.d0 0.d0 0.d0 0.d0 0.d0 0.d0 0.d0  # cased = 0;  uncased = 1
    WELL_INDEX_MODEL PEACEMAN_2D
    #WELL_INDEX_MODEL PEACEMAN_ISO
  /

  WELL_BOUNDARY_CONDITIONS
    BOTTOM_OF_HOLE
      LIQUID_VELOCITY 0.d0 m/s
      GAS_VELOCITY 0.d0 m/s
    /
    TOP_OF_HOLE
      LIQUID_PRESSURE 100500.d0 Pa # (under-pressurized relative to 101325Pa)
      GAS_SATURATION 0.0d0 
      
      #LIQUID_RATE 1.0d-5 m/s # positive goes into well; negative goes out of well
      #GAS_RATE 0.d0 m/s
      
      TRANSPORT_CONDITION transport_well_bc_condition
    /
  /
  
  WIPP_INTRUSION_START_TIME 5.d-3 yr
  WIPP_INTRUSION_ZERO_VALUE 0.5d-10 # [T: mol/m3-bulk]

  # This will create output in snapshot and observation files.
  # Outside of the well region, the values will read -999
  WELL_MODEL_OUTPUT
    WELL_LIQ_PRESSURE
    #WELL_GAS_PRESSURE
    WELL_AQ_CONC     
    WELL_AQ_MASS 
    WELL_LIQ_Q
    #WELL_GAS_Q
  /

  WELL_FLOW_SOLVER
    MAXIMUM_NUMBER_OF_ITERATIONS 8      ! default=8
    MAXIMUM_NUMBER_OF_TS_CUTS 15        ! default=20
    TIMESTEP_CUT_FACTOR 2               ! default 2.0
    ITOL_ABSOLUTE_RESIDUAL 1.0d-8       ! default=1.0d-8
    ITOL_SCALED_RESIDUAL 1.0d-5         ! default=1.0d-5
    ITOL_ABS_UPDATE_PRESSURE 1.0d1      ! default=1.0d0
    ITOL_ABS_UPDATE_SATURATION 1.0d-5   ! default=1.0d-5
    ITOL_REL_UPDATE_PRESSURE 1.0d-1     ! default=1.0d-4
    ITOL_REL_UPDATE_SATURATION 1.0d-4   ! default=1.0d-4
  /

  WELL_TRANSPORT_SOLVER
    MAXIMUM_NUMBER_OF_ITERATIONS 4      ! default=8
    MAXIMUM_NUMBER_OF_TS_CUTS 15        ! default=20
    TIMESTEP_CUT_FACTOR 2.0             ! default 2.0
    TIMESTEP_RAMP_FACTOR 1.1            ! default 1.1
    ITOL_ABSOLUTE_RESIDUAL 1.0d-10       ! default 1.0d-8
    ITOL_SCALED_RESIDUAL 1.0d-4         ! default 1.0d-4
    ITOL_ABSOLUTE_UPDATE 1.0d-1          ! default 1.0d0 
    ITOL_RELATIVE_UPDATE 1.0d-1          ! default 1.0d-1
  /

END

!=========================== times ============================================

TIME
  FINAL_TIME 1.d-2 yr
  INITIAL_TIMESTEP_SIZE 1.d-3 yr 
  MAXIMUM_TIMESTEP_SIZE 5.d-3 yr
END

!=========================== fluid properties =================================

FLUID_PROPERTY
  DIFFUSION_COEFFICIENT 0.d0
END

EOS WATER
  DENSITY EXPONENTIAL 1.2200E+03 101325.d0 3.1000E-10 ! ref_dens ref_pres compres
  VISCOSITY CONSTANT 2.10000E-03
END

EOS GAS
  DENSITY IDEAL
  VISCOSITY CONSTANT 8.93389E-06
END

!=========================== material properties ==============================

EXTERNAL_FILE ../mat_props.txt

!=========================== saturation functions =============================

EXTERNAL_FILE ../c_curves.txt

!=========================== output options ===================================

OBSERVATION
  REGION castiler
END

OUTPUT 
  SNAPSHOT_FILE
    PERIODIC TIME 1 y
    #FORMAT TECPLOT POINT
    FORMAT HDF5
  /
  VARIABLES
    MAXIMUM_PRESSURE
    LIQUID_PRESSURE
    LIQUID_SATURATION
    LIQUID_DENSITY
    LIQUID_MOBILITY
    CAPILLARY_PRESSURE
    MATERIAL_ID_KLUDGE_FOR_VISIT
    VOLUME
    RESIDUAL
    PERMEABILITY
    POROSITY
  /
END

!=========================== stratigraphy couplers ============================

STRATA
  MATERIAL WELL
  REGION well_all
  WELL
END

STRATA
  MATERIAL SALT
  REGION castiler
END


!=========================== flow conditions ==================================

FLOW_CONDITION hydrostatic
  TYPE
    LIQUID_PRESSURE HYDROSTATIC
    LIQUID_SATURATION DIRICHLET
  /
  DATUM 0.d0 0.d0 150.d0 # this is the top
  LIQUID_PRESSURE 101325.d0 Pa
  LIQUID_SATURATION 1.0d0
END

#FLOW_CONDITION sink
#  TYPE
#    RATE mass_rate
#  /
#     ! liquid gas  
#  RATE -1.d-7   0.d0     kg/s kg/s
#END

!=========================== transport conditions =============================

TRANSPORT_CONDITION transport_initial_condition
  TYPE dirichlet_zero_gradient
  CONSTRAINT_LIST
    ! time[s]    constraint
    0.0d0      constraint_chemistry_initial
  /
END

TRANSPORT_CONDITION transport_well_bc_condition
  TYPE dirichlet_zero_gradient
  CONSTRAINT_LIST
    ! time[s]    constraint
    0.0d0      constraint_chemistry_well_bc
  /
END

!=========================== condition couplers ===============================

INITIAL_CONDITION
  FLOW_CONDITION hydrostatic
  TRANSPORT_CONDITION transport_initial_condition
  REGION castiler
END

BOUNDARY_CONDITION
  FLOW_CONDITION hydrostatic
  TRANSPORT_CONDITION transport_initial_condition
  REGION top
END

#SOURCE_SINK test
#  FLOW_CONDITION sink
#  TRANSPORT_CONDITION transport_initial_condition
#  REGION sink_test
#/

!=========================== transport constraints ============================

CONSTRAINT constraint_chemistry_well_bc
  CONCENTRATIONS
   ! species_name  concentration  constraint_type 
   ! AQ is for aqueous concentration [mol/m^3-liq]

    PU239L    1.d-15    AQ  # [mol/m^3-liq]
  /
END

CONSTRAINT constraint_chemistry_initial
  CONCENTRATIONS
   ! species_name  concentration  constraint_type 
   ! AQ is for aqueous concentration [mol/m^3-liq]

    PU239L    1.d-5    AQ  # [mol/m^3-liq]
  /
END

!=============================== transport ====================================

NUCLEAR_WASTE_CHEMISTRY

  SPECIES
    NAME                      PU239L
    SOLUBILITY                5.94620667361208d-03   # [mol/m^3-liq]
    PRECIPITATE_MOLAR_DENSITY 38.61d3                # [mol/m^3-mnrl] (quartz example)
    ELEMENTAL_KD              0.0d0                  # [m^3-water/m^3-bulk]
  /                     

  OUTPUT
    ALL_SPECIES
    ALL_CONCENTRATIONS
    MINERAL_VOLUME_FRACTION
  /

  RADIOACTIVE_DECAY
  # [1/sec]
    0.d0     PU239L      
  /

END

!==============================================================================
END_SUBSURFACE
!==============================================================================

