

!=========================== flow mode ========================================

SIMULATION
  SIMULATION_TYPE SUBSURFACE
  
  PROCESS_MODELS
  
    SUBSURFACE_TRANSPORT  nw_trans
      MODE NWT
    END
    
  END
END

!==============================================================================
SUBSURFACE

#=========================== numerical methods ================================
NUMERICAL_METHODS TRANSPORT

  TIMESTEPPER
    NUM_STEPS_AFTER_TS_CUT 2
    DT_FACTOR 2.0 2.0 1.8 1.6 1.4 1.4 1.3 1.3 1.2 1.2 1.1 1.1
  /

  NEWTON_SOLVER
    NWT_ITOL_RELATIVE_UPDATE
      AM241L 1.0d-1
      PU239L 1.0d-1
      PU238L 1.0d-1
      U234L  3.0d-1
      TH230L 2.0d-1
    /
    NWT_ITOL_ABSOLUTE_UPDATE
      AM241L 2.0d-4
      PU239L 0.1d-1
      PU238L 3.3d-5
      U234L  5.9d-5
      TH230L 2.7d-7
    /
    NWT_ITOL_SCALED_RESIDUAL
      AM241L 1.0d-3
      PU239L 1.0d-3
      PU238L 1.0d-3
      U234L  1.0d-3
      TH230L 1.0d-3
    /
    NWT_ITOL_ABSOLUTE_RESIDUAL
      AM241L 1.0d-9
      PU239L 1.0d-6
      PU238L 1.0d-11
      U234L  1.0d-11
      TH230L 1.0d-13
    /
    #VERBOSE_LOGGING
    #PRINT_DETAILED_CONVERGENCE
    MAXIMUM_NUMBER_OF_ITERATIONS 12
  /

  LINEAR_SOLVER
    SOLVER DIRECT
  /

END
!==============================================================================

!=========================== REGRESSION =======================================

REGRESSION
  CELL_IDS
    1
  /
END

!=========================== discretization ===================================

GRID
  GRAVITY 0.0d0  -9.80665d+00  0.0d0  ! use y as the vertical direction
  TYPE structured
  NXYZ 1 1 1
  DXYZ
     1*100.0d0 
     1*100.0d0 
     1*4.38406d1
  /
END

!=========================== fluid properties =================================

FLUID_PROPERTY
  DIFFUSION_COEFFICIENT 0.d0
END

!=========================== material properties ==============================

MATERIAL_PROPERTY REPO
  ID 3
  CHARACTERISTIC_CURVES cc_KRP4
  POROSITY 3.000000D-01
  SOIL_COMPRESSIBILITY_FUNCTION POROSITY_EXPONENTIAL
  POROSITY_COMPRESSIBILITY 1.0D-09
  SOIL_REFERENCE_PRESSURE INITIAL_PRESSURE
  PERMEABILITY
    PERM_ISO 1.0D-12
  /
END

!=========================== regions ==========================================

REGION rgs_repo
  COORDINATES
    -1.d20 -1.d20 -1.d20
     1.d20  1.d20  1.d20
  /
END

!=========================== stratigraphy couplers ============================

STRATA
  MATERIAL REPO
  REGION rgs_repo
END

!=========================== transport conditions =============================

TRANSPORT_CONDITION transport_initial_condition
  TYPE dirichlet_zero_gradient
  CONSTRAINT_LIST
    ! time[s]    constraint
    0.0d0      constraint_inventory_initial
  /
END

!=========================== condition couplers ===============================

INITIAL_CONDITION
  TRANSPORT_CONDITION transport_initial_condition
  REGION rgs_repo
END

!=========================== solver options ===================================



!=========================== times ============================================

TIME
  FINAL_TIME 550.d0 yr
  INITIAL_TIMESTEP_SIZE 1.d0 yr
  MAXIMUM_TIMESTEP_SIZE 55.d0 yr
END

!=========================== output options ===================================

OBSERVATION
  REGION rgs_repo
END

!=============================== transport ====================================

NUCLEAR_WASTE_CHEMISTRY

  SPECIES
    NAME                      AM241L
    SOLUBILITY                1.0d20     # [mol/m^3-liq]
    PRECIPITATE_MOLAR_DENSITY 38.61d3    # [mol/m^3-mnrl] (quartz example)
    ELEMENTAL_KD              4.d-4      # [m^3-water/m^3-bulk]
  /

  SPECIES
    NAME                 PU239L
    SOLUBILITY           1.0d20     # [mol/m^3-liq]
    PRECIP_MOLAR_DENSITY 38.61d3    # [mol/m^3-mnrl] (quartz example)
    ELEMENTAL_KD         3.d-4      # [m^3-water/m^3-bulk]
  /

  SPECIES
    NAME                 PU238L
    SOLUBILITY           1.0d20     # [mol/m^3-liq]
    PRECIP_MOLAR_DENSITY 38.61d3    # [mol/m^3-mnrl] (quartz example)
    ELEMENTAL_KD         2.d-3      # [m^3-water/m^3-bulk]
  /

  SPECIES
    NAME                 U234L
    SOLUBILITY           1.0d20     # [mol/m^3-liq]
    PRECIP_MOLAR_DENSITY 38.61d3    # [mol/m^3-mnrl] (quartz example)
    ELEMENTAL_KD         5.d-10      # [m^3-water/m^3-bulk]
  /

  SPECIES
    NAME                 TH230L
    SOLUBILITY           1.0d20     # [mol/m^3-liq]
    PRECIP_MOLAR_DENSITY 38.61d3    # [mol/m^3-mnrl] (quartz example)
    ELEMENTAL_KD         6.d-5      # [m^3-water/m^3-bulk]
  /

  RADIOACTIVE_DECAY
  # [1/sec]
    5.081724d-11  AM241L
    9.127564d-13  PU239L
    2.503240d-10  PU238L -> U234L
    8.983245d-14  U234L -> TH230L
    2.852458d-13  TH230L      
  /                       

  OUTPUT
    ALL_SPECIES
    ALL_CONCENTRATIONS
    MINERAL_VOLUME_FRACTION
  /

  TRUNCATE_CONCENTRATION 1.0d-20

END

!=========================== transport constraints ============================

CONSTRAINT constraint_inventory_initial
  CONCENTRATIONS
   ! species_name  concentration  constraint_type 
   ! T is for total bulk concentration [mol/m^3-bulk]
   ! Cell volume is 100.0 x 100.0 x 4.38406d1 m^3 = 438406.0 m^3

   ! Total mass AM241L = 2.117537E+02 kg
   ! Molar mass AM241L = 2.41057E-01 kg/mol
   ! Total mols AM241L = 8.784382E+02 mol
    AM241L    2.003708d-3    T  # [mol/m^3-bulk]

   ! Total mass PU239L = 1.407980E+04 kg
   ! Molar mass PU239L = 2.39052E-01 kg/mol
   ! Total mols PU239L = 5.889848E+04 mol
    PU239L    0.134346d0     T  # [mol/m^3-bulk]

   ! Total mass PU238L = 3.510318E+01 kg
   ! Molar mass PU238L = 2.38050E-01 kg/mol
   ! Total mols PU238L = 1.474613E+02 mol
    PU238L    3.363580d-4    T  # [mol/m^3-bulk]

   ! Total mass U234L = 6.095460E+01 kg
   ! Molar mass U234L = 2.34041E-01 kg/mol
   ! Total mols U234L = 2.604441E+02 mol
    U234L     5.940705d-4    T  # [mol/m^3-bulk]

   ! Total mass TH230L = 2.740472E-01 kg
   ! Molar mass TH230L = 2.30033E-01 kg/mol
   ! Total mols TH230L = 1.191338E+00 mol
    TH230L    2.717432d-6    T  # [mol/m^3-bulk]
  /
END

!==============================================================================
END_SUBSURFACE
!==============================================================================

