#Description: 1D pulse gas diffusion problem.

SIMULATION
  SIMULATION_TYPE SUBSURFACE
  PROCESS_MODELS
    SUBSURFACE_TRANSPORT transport
      MODE GIRT
    /
  /
END

SUBSURFACE

#=========================== numerical methods ================================
NUMERICAL_METHODS TRANSPORT

  LINEAR_SOLVER
    SOLVER DIRECT
  /

END

#=========================== regression =======================================
REGRESSION
  CELL_IDS
    20
    40
    50
    60
    80
  /
END

#=========================== flow mode ========================================
# Uniform velocity (see below). No flow mode specified.
REFERENCE_SATURATION 0.5d0

#=========================== useful tranport parameters ==================
SPECIFIED_VELOCITY
  UNIFORM? YES
  DATASET 0.d0 0.d0 0.d0 0.d0 0.d0 0.d0
END

#=========================== chemistry ========================================
CHEMISTRY
  PRIMARY_SPECIES
    Tracer
    A(aq)
    O2(aq)
  /
  ACTIVE_GAS_SPECIES
    GAS_TRANSPORT_IS_UNVETTED
    A(g)
    O2(g)
  /
  PASSIVE_GAS_SPECIES
    A(g)
    O2(g)
  /
  AQUEOUS_DIFFUSION_COEFFICIENTS
    A(aq)  1.88d-5 cm^2/s  ! nitrogen
    O2(aq) 2.1d-5 cm^2/s
  /
  GAS_DIFFUSION_COEFFICIENTS
    O2(g) 0.176d0 cm^2/s
    A(g)  0.01d0 cm^2/s 
  /
  DATABASE ../../../database/gas_database.dat
  OUTPUT
    TOTAL
    ALL
    A(g)
    O2(g)
  /
END

#=========================== solver options ===================================

#=========================== discretization ===================================
GRID
  TYPE STRUCTURED
  NXYZ 99 1 1
  BOUNDS
    0.d0 0.d0 0.d0
    99.d0 1.d0 1.d0
  /
END

#=========================== fluid properties =================================
FLUID_PROPERTY
  DIFFUSION_COEFFICIENT 1.d-9
END

#=========================== material properties ==============================
MATERIAL_PROPERTY soil1
  ID 1
  POROSITY 0.25d0
  TORTUOSITY 1.d0
END

#=========================== output options ===================================
OUTPUT
#  TIMES y 5. 10. 15. 20.
#  FORMAT TECPLOT POINT
#  FORMAT HDF5
END

#=========================== times ============================================
TIME
  FINAL_TIME 0.1d0 y
  INITIAL_TIMESTEP_SIZE 1.d0 h
  MAXIMUM_TIMESTEP_SIZE 2.5d-1 y
END

#=========================== regions ==========================================
REGION all
  COORDINATES
    -1.d20 -1.d20 -1.d20
    1.d20 1.d20 1.d20
  /
END

REGION west
  FACE west
  COORDINATES
    0.d0 0.d0 0.d0
    0.d0 1.d0 1.d0
  /
END

REGION east
  FACE east
  COORDINATES
    99.d0 0.d0 0.d0
    99.d0 1.d0 1.d0
  /
END

REGION pulse
  COORDINATES
    49.d0 -1.d20 -1.d20
    50.d0 1.d20 1.d20
  /
END

#=========================== transport conditions =============================
TRANSPORT_CONDITION initial
  TYPE ZERO_GRADIENT
  CONSTRAINT_LIST
    0.d0 initial
  /
END

TRANSPORT_CONDITION pulse
  TYPE ZERO_GRADIENT
  CONSTRAINT_LIST
    0.d0 pulse
  /
END

#=========================== constraints ======================================
CONSTRAINT initial
  CONCENTRATIONS
    Tracer  1.d-6      F
    O2(aq)  0.01d0     G  O2(g)
    A(aq)   0.2479d-3  G  A(g)  ! equivalent to 1.d-6
  /
END

CONSTRAINT pulse
  CONCENTRATIONS
    Tracer  1.d-3      F
    O2(aq)  0.1d0      G  O2(g)
    A(aq)   0.2479d0   G  A(g)  ! equivalent to 1.d-3
  /
END

#=========================== condition couplers ===============================
# initial condition
INITIAL_CONDITION
  TRANSPORT_CONDITION initial
  REGION all
END

INITIAL_CONDITION
  TRANSPORT_CONDITION pulse
  REGION pulse
END

BOUNDARY_CONDITION outlet
  TRANSPORT_CONDITION initial
  REGION east
END

BOUNDARY_CONDITION inlet
  TRANSPORT_CONDITION initial
  REGION west
END

#=========================== stratigraphy couplers ============================
STRATA
  REGION all
  MATERIAL soil1
END


END_SUBSURFACE
