  SIMULATION_TYPE SUBSURFACE
  PROCESS_MODELS
    SUBSURFACE_FLOW flow
      MODE GENERAL
    /
    SUBSURFACE_TRANSPORT transport
      MODE GIRT
    /
  /
  CHECKPOINT
    TIMES y 0.01d0
    PERIODIC TIMESTEP 10
    FORMAT HDF5
    FORMAT BINARY
  /
