# Description: 10 cell infiltrometer for testing revert restart

SIMULATION
  SIMULATION_TYPE SUBSURFACE
  PROCESS_MODELS
    SUBSURFACE_FLOW flow
      MODE RICHARDS
      OPTIONS
        REVERT_PARAMETERS_ON_RESTART
      /
    /
  /
  CHECKPOINT
    FORMAT BINARY
  /
  RESTART
    FILENAME richards-t-chk-restart.chk
    RESET_TO_TIME_ZERO
  END
END

SUBSURFACE
  EXTERNAL_FILE richards_material_revised.txt
  EXTERNAL_FILE richards_subsurface_block.txt
END_SUBSURFACE
