# Description: 10 cell infiltrometer for testing revert restart

SIMULATION
  SIMULATION_TYPE SUBSURFACE
  PROCESS_MODELS
    SUBSURFACE_FLOW flow
      MODE RICHARDS
    /
  /
  CHECKPOINT
    FORMAT BINARY
  /
END

SUBSURFACE
  EXTERNAL_FILE richards_material_original.txt
  EXTERNAL_FILE richards_subsurface_block.txt
END_SUBSURFACE
