SIMULATION
  SIMULATION_TYPE SUBSURFACE
  PROCESS_MODELS
    SUBSURFACE_FLOW flow
      MODE RICHARDS
    /
  /
END

SUBSURFACE

EXTERNAL_FILE regression-np8.txt
EXTERNAL_FILE 5x5x5.txt

STRATA
  MATERIAL soil2
  REGION polyvol_xz
END

END_SUBSURFACE
