SIMULATION
  SIMULATION_TYPE SUBSURFACE
  PROCESS_MODELS
    SUBSURFACE_FLOW flow
      MODE RICHARDS
    /
  /
END

SUBSURFACE

PROC 2 1 1
REGRESSION
  CELL_IDS
    113
  /
  CELLS_PER_PROCESS 1
  VARIABLES
    LIQUID_PRESSURE
    LIQUID_SATURATION
  /
END

EXTERNAL_FILE 5x5x5_infil.txt

END_SUBSURFACE
