#Description: 3D test problem for testing chemical reactions
#             based on chemistry from Hammond and Lichtner, WRR, 2010

SIMULATION
  SIMULATION_TYPE SUBSURFACE
  PROCESS_MODELS
    SUBSURFACE_FLOW flow
      MODE RICHARDS
    /
    SUBSURFACE_TRANSPORT transport
      MODE RT
    /
  /
END

SUBSURFACE

#=========================== debug ==== =======================================
DEBUG
  PRINT_SOLUTION
  PRINT_RESIDUAL
  PRINT_JACOBIAN
  FORMAT MATLAB
  APPEND_COUNTS_TO_FILENAMES
END

#=========================== regression =======================================
REGRESSION
  CELLS
    1
    5
    8
  /
END

#=========================== flow mode ========================================

#=========================== chemistry ========================================
CHEMISTRY
  PRIMARY_SPECIES
  Tracer
  /
  OUTPUT
    ALL
    TOTAL
  /
END

#=========================== solver options ===================================
TIMESTEPPER FLOW
  MAXIMUM_NUMBER_OF_TIMESTEPS 2
END

#=========================== discretization ===================================
GRID
  TYPE STRUCTURED
  NXYZ 2 2 2
  BOUNDS
    0.d0 0.d0 0.d0
    1.d0 1.d0 1.d0
  /
END

#=========================== fluid properties =================================
FLUID_PROPERTY
  DIFFUSION_COEFFICIENT 1.d-9
END

#=========================== material properties ==============================
MATERIAL_PROPERTY soil1
  ID 1
  POROSITY 0.25d0
  TORTUOSITY 1.d0
  CHARACTERISTIC_CURVES default
  PERMEABILITY
    PERM_X 1.d-12
    PERM_Y 1.d-12
    PERM_Z 1.d-13
  /
END

#=========================== characteristic curves ============================
CHARACTERISTIC_CURVES default
  DEFAULT
END

#=========================== output options ===================================
OUTPUT
  VARIABLES
    LIQUID_PRESSURE
  /
END

#=========================== times ============================================
TIME
  FINAL_TIME 2.d0 s
  INITIAL_TIMESTEP_SIZE 1.d0 s
  MAXIMUM_TIMESTEP_SIZE 1.d0 s
END

#=========================== regions ==========================================
REGION all
  COORDINATES
    -1.d20 -1.d20 -1.d20
    1.d20 1.d20 1.d20
  /
END

#=========================== flow conditions ==================================
FLOW_CONDITION initial
  TYPE
    PRESSURE DIRICHLET
  /
  PRESSURE 201325.d0
END

#=========================== transport conditions =============================
TRANSPORT_CONDITION initial
  TYPE DIRICHLET_ZERO_GRADIENT
  CONSTRAINT initial
    CONCENTRATIONS
      Tracer   1.e-3  F
    /
  /
END

#=========================== condition couplers ===============================
# initial condition
INITIAL_CONDITION
  FLOW_CONDITION initial
  TRANSPORT_CONDITION initial
  REGION all
END

#=========================== stratigraphy couplers ============================
STRATA
  MATERIAL soil1
  REGION all
END

END_SUBSURFACE
