#Description: 3D test problem for testing chemical reactions
#             based on chemistry from Hammond and Lichtner, WRR, 2010

SIMULATION
  SIMULATION_TYPE SUBSURFACE
  PROCESS_MODELS
    SUBSURFACE_FLOW flow
      MODE GENERAL
    /
    SUBSURFACE_TRANSPORT transport
      MODE GIRT
    /
  /
END

SUBSURFACE

#=========================== numerical methods ================================
NUMERICAL_METHODS FLOW

  TIMESTEPPER
    MAXIMUM_NUMBER_OF_TIMESTEPS 2
  /

END

#=========================== debug ==== =======================================
DEBUG
  PRINT_SOLUTION
  PRINT_RESIDUAL
  PRINT_JACOBIAN
  FORMAT ASCII
  APPEND_COUNTS_TO_FILENAMES
END

#=========================== regression =======================================
REGRESSION
  CELL_IDS
    1
    5
    8
  /
END

#=========================== flow mode ========================================

#=========================== chemistry ========================================
CHEMISTRY
  PRIMARY_SPECIES
  Tracer
  /
  OUTPUT
    ALL
    TOTAL
  /
END

#=========================== solver options ===================================

#=========================== discretization ===================================
GRID
  TYPE STRUCTURED
  NXYZ 2 2 2
  BOUNDS
    0.d0 0.d0 0.d0
    1.d0 1.d0 1.d0
  /
END

#=========================== fluid properties =================================
FLUID_PROPERTY
  DIFFUSION_COEFFICIENT 1.d-9
END

#=========================== material properties ==============================
MATERIAL_PROPERTY soil1
  ID 1
  CHARACTERISTIC_CURVES cc1
  POROSITY 0.25d0
  TORTUOSITY 1.d0
  ROCK_DENSITY 2650.d-3 kg/L
  THERMAL_CONDUCTIVITY_DRY 0.5d-6 MW/m-C
  THERMAL_CONDUCTIVITY_WET 2.d-6 MW/m-C
  HEAT_CAPACITY 830.d-6 MJ/kg-C
  PERMEABILITY
    PERM_X 1.d-12
    PERM_Y 1.d-12
    PERM_Z 1.d-13
  /
END

#=========================== characteristic curves ============================
CHARACTERISTIC_CURVES cc1
  SATURATION_FUNCTION VAN_GENUCHTEN
    LIQUID_RESIDUAL_SATURATION 0.d1
    ALPHA 1.d-4
    M 0.5d0
    MAX_CAPILLARY_PRESSURE 1.d6
  /
  PERMEABILITY_FUNCTION MUALEM
    PHASE LIQUID
    LIQUID_RESIDUAL_SATURATION 0.d1
    M 0.5d0
  /
  PERMEABILITY_FUNCTION MUALEM_VG_GAS
    PHASE GAS
    LIQUID_RESIDUAL_SATURATION 0.d0
    GAS_RESIDUAL_SATURATION 1.d-40
    M 0.5d0
  /
END

#=========================== output options ===================================
OUTPUT
  VARIABLES
    LIQUID_PRESSURE
  /
END

#=========================== times ============================================
TIME
  FINAL_TIME 2.d0 s
  INITIAL_TIMESTEP_SIZE 1.d0 s
  MAXIMUM_TIMESTEP_SIZE 1.d0 s
END

#=========================== regions ==========================================
REGION all
  COORDINATES
    -1.d20 -1.d20 -1.d20
    1.d20 1.d20 1.d20
  /
END

#=========================== flow conditions ==================================
FLOW_CONDITION initial
  TYPE
    GAS_PRESSURE DIRICHLET
    GAS_SATURATION DIRICHLET
    TEMPERATURE DIRICHLET
  /
  GAS_PRESSURE 201325.d0
  GAS_SATURATION 0.5d0
  TEMPERATURE 27.d0
END

#=========================== transport conditions =============================
TRANSPORT_CONDITION initial
  TYPE DIRICHLET_ZERO_GRADIENT
  CONSTRAINT initial
    CONCENTRATIONS
      Tracer   1.e-3  F
    /
  /
END

#=========================== condition couplers ===============================
# initial condition
INITIAL_CONDITION
  FLOW_CONDITION initial
  TRANSPORT_CONDITION initial
  REGION all
END

#=========================== stratigraphy couplers ============================
STRATA
  MATERIAL soil1
  REGION all
END

END_SUBSURFACE
