SIMULATION
  SIMULATION_TYPE SUBSURFACE
  PROCESS_MODELS
    SUBSURFACE_FLOW flow
      MODE RICHARDS
    /
  /
END

SUBSURFACE

#=========================== numerical methods ================================
NUMERICAL_METHODS FLOW
  TIMESTEPPER
    MAXIMUM_NUMBER_OF_TIMESTEPS 0
  /
END

#=========================== discretization ===================================
GRID
  TYPE UNSTRUCTURED ../../discretization/mixed.h5
END

#=========================== material properties ==============================
MATERIAL_PROPERTY soil1
  ID 1
  POROSITY 0.25d0
  CHARACTERISTIC_CURVES default
  PERMEABILITY
    PERM_ISO 1.d-12
  /
END

#=========================== characteristic curves ============================
CHARACTERISTIC_CURVES default
  DEFAULT
END

#=========================== output options ===================================
OUTPUT
  FORMAT TECPLOT FEBRICK
END

#=========================== times ============================================
TIME
  FINAL_TIME 1.d0 s
  INITIAL_TIMESTEP_SIZE 1.d0 s
  MAXIMUM_TIMESTEP_SIZE 1.d0 s
END

#=========================== regions ==========================================
REGION all
  COORDINATES
    -1.d20 -1.d20 -1.d20
    1.d20 1.d20 1.d20
  /
END

#=========================== flow conditions ==================================
FLOW_CONDITION initial
  TYPE
    LIQUID_PRESSURE DIRICHLET
  /
  LIQUID_PRESSURE 201325.d0
END

#=========================== condition couplers ===============================
INITIAL_CONDITION
  FLOW_CONDITION initial
  REGION all
END

#=========================== stratigraphy couplers ============================
STRATA
  REGION all
  MATERIAL soil1
END

END_SUBSURFACE
