!=========================== flow mode ========================================
SIMULATION
  SIMULATION_TYPE SUBSURFACE
  
  PROCESS_MODELS
  
    SUBSURFACE_FLOW flow
      MODE WIPP_FLOW
      OPTIONS
        ALLOW_NEGATIVE_GAS_PRESSURE
        HARMONIC_PERMEABILITY_ONLY
        DEFAULT_ALPHA
        GAS_COMPONENT_FORMULA_WEIGHT     2.01588D0 ! H2 kg/kmol
      END
    END
    
    SUBSURFACE_TRANSPORT  nw_trans
      MODE NWT
    END
    
  END
END

!==============================================================================
SUBSURFACE

#=========================== numerical methods ================================
NUMERICAL_METHODS FLOW

  TIMESTEPPER
    TIMESTEP_MAXIMUM_GROWTH_FACTOR 1.25d0
    TIMESTEP_REDUCTION_FACTOR 5.0d-1
    GAS_SAT_CHANGE_TS_GOVERNOR       3.d-1
    GAS_SAT_GOV_SWITCH_ABS_TO_REL    1.d0
    LIQ_PRES_CHANGE_TS_GOVERNOR      5.d5   ! Pa
  /

  NEWTON_SOLVER
    LIQUID_RESIDUAL_INFINITY_TOL     1.d-6
    GAS_RESIDUAL_INFINITY_TOL        1.d-6
    MAX_ALLOW_REL_LIQ_PRES_CHANG_NI  1.d-5
    MAX_ALLOW_REL_GAS_SAT_CHANGE_NI  1.d-4
    REL_GAS_SATURATION_PERTURBATION  1.d-8
    REL_LIQ_PRESSURE_PERTURBATION    1.d-8
    MIN_GAS_SATURATION_PERTURBATION  1.d-10
    MIN_LIQ_PRESSURE_PERTURBATION    1.d-2
    GAS_SAT_THRESH_FORCE_EXTRA_NI    1.d-3
    GAS_SAT_THRESH_FORCE_TS_CUT      0.20d0
    MAX_ALLOW_GAS_SAT_CHANGE_TS      1.0d0
    MIN_LIQ_PRES_FORCE_TS_CUT       -1.d8   ! Pa
    MAX_ALLOW_LIQ_PRES_CHANGE_TS     1.d7   ! Pa
    JACOBIAN_PRESSURE_DERIV_SCALE    1.d7
    SCALE_JACOBIAN
  /

END
!==============================================================================

!=========================== REGRESSION =======================================

REGRESSION
  CELL_IDS
    3
  /
END

!=========================== discretization ===================================
GRID
  GRAVITY 0.0d0  -9.80665d+00  0.0d0  ! use y as the vertical direction
  TYPE structured
  NXYZ 1 5 1
  DXYZ
     1*100.0d0 
     1*100.0d0 
     1*4.38406d1
  /
END

!=========================== fluid properties =================================

FLUID_PROPERTY
  DIFFUSION_COEFFICIENT 1.d-9
END

EOS WATER
  DENSITY EXPONENTIAL 1.2200E+03 101325.d0 3.1000E-10 ! ref_dens ref_pres compres
  VISCOSITY CONSTANT 2.10000E-03
END

EOS GAS
  DENSITY IDEAL
  VISCOSITY CONSTANT 8.93389E-06
END

!=========================== saturation functions =============================

! Note: The liquid residual saturation must be set to zero, so
!       that all liquid can flow out and make a dry-out condition.
!       KRP11 must be used, because it sets capillary pressure to zero,
!       allowing a full dry out condition.

CHARACTERISTIC_CURVES cc_KRP4
  SATURATION_FUNCTION BRAGFLO_KRP11
  /
  PERMEABILITY_FUNCTION BRAGFLO_KRP11_LIQ
    LIQUID_RESIDUAL_SATURATION 0.d0
    GAS_RESIDUAL_SATURATION    1.000000E-01
    TOLC 0.50
  /
  PERMEABILITY_FUNCTION BRAGFLO_KRP11_GAS
    LIQUID_RESIDUAL_SATURATION 0.d0
    GAS_RESIDUAL_SATURATION    1.000000E-01
    TOLC 0.50
  /
END

!=========================== material properties ==============================

MATERIAL_PROPERTY REPO
  ID 3
  CHARACTERISTIC_CURVES cc_KRP4
  POROSITY 3.000000D-01
  SOIL_COMPRESSIBILITY_FUNCTION POROSITY_EXPONENTIAL
  POROSITY_COMPRESSIBILITY 1.0D-09
  SOIL_REFERENCE_PRESSURE INITIAL_PRESSURE
  PERMEABILITY
    PERM_ISO 1.0D-12
  /
END

!=========================== regions ==========================================

REGION all
  COORDINATES
    -1.d20 -1.d20 -1.d20
     1.d20  1.d20  1.d20
  /
END

REGION rgs_repo_face
  FACE SOUTH
  COORDINATES
    0.0d0   0.0d0 0.0d0
    100.0d0 0.0d0 4.38406d1
  /
END

REGION rgs_repo
  COORDINATES
    0.d0   400.d0 0.d0
    100.d0 500.d0 4.38406d1
  /
END

! Material Map
! 3

!=========================== stratigraphy couplers ============================

STRATA
  MATERIAL REPO
  REGION all
END

!=========================== flow conditions ==================================

! initial condition
FLOW_CONDITION initial
  TYPE
    LIQUID_PRESSURE DIRICHLET
    LIQUID_SATURATION DIRICHLET
  /
  LIQUID_PRESSURE 1.51e6 Pa 
  LIQUID_SATURATION 0.25d0
END

!=========================== transport conditions =============================

TRANSPORT_CONDITION transport_initial_condition
  TYPE dirichlet_zero_gradient
  CONSTRAINT_LIST
    ! time[s]    constraint
    0.0d0      constraint_inventory_initial
  /
END

!=========================== condition couplers ===============================

INITIAL_CONDITION
  FLOW_CONDITION initial
  TRANSPORT_CONDITION transport_initial_condition
  REGION all
END

BOUNDARY_CONDITION
  FLOW_CONDITION initial
  TRANSPORT_CONDITION transport_initial_condition
  REGION rgs_repo_face
END

!=========================== solver options ===================================
skip
NEWTON_SOLVER TRANSPORT
  RTOL 1.0d-06
  ATOL 1.0d-25
END

TIMESTEPPER TRANSPORT
  TS_ACCELERATION 30
  DT_FACTOR 2. 2. 2. 2. 2. 2. 2. 2. 2. 2. 1.8 1.6 1.4 1.2 1. 1. 1. 1. 1. 1. 1. 1. 1. 1. 1. 1. 1. 1. 1.
END
noskip
!=========================== times ============================================


TIME
  FINAL_TIME 5.0 yr
  INITIAL_TIMESTEP_SIZE 1.d-4 s
  MAXIMUM_TIMESTEP_SIZE 1.d0 yr
END
! All drainage action occurs in first 2 years of simulation.

!=========================== output options ===================================

OBSERVATION
  REGION rgs_repo
END

!=============================== transport ====================================

NUCLEAR_WASTE_CHEMISTRY

  SPECIES
    NAME                 AM241L
    SOLUBILITY           3.08531847680638d-03    # [mol/m^3-liq]
    PRECIP_MOLAR_DENSITY 38.61d3                 # [mol/m^3-mnrl] (quartz example)
    ELEMENTAL_KD         0.0d0                   # [m^3-water/m^3-bulk]
  /

  SPECIES
    NAME                      PU239L
    SOLUBILITY                5.94620667361208d-03   # [mol/m^3-liq]
    PRECIPITATE_MOLAR_DENSITY 38.61d3                # [mol/m^3-mnrl] (quartz example)
    ELEMENTAL_KD              0.0d0                  # [m^3-water/m^3-bulk]
  /                     

  OUTPUT
    ALL_SPECIES
    ALL_CONCENTRATIONS
    MINERAL_VOLUME_FRACTION
  /

END

!=========================== transport constraints ============================

CONSTRAINT constraint_inventory_initial
  CONCENTRATIONS
   ! species_name  concentration  constraint_type 
   ! AQ is for aqueous concentration [mol/m^3-liq]
   ! Cell volume is 100.0 x 100.0 x 4.38406d1 m^3 = 438406.0 m^3

    AM241L    1.d-1    AQ  # [mol/m^3-liq]
    PU239L    1.d-1    AQ  # [mol/m^3-liq]
  /
END

!==============================================================================
END_SUBSURFACE
!==============================================================================

