SIMULATION
  SIMULATION_TYPE SUBSURFACE
  PROCESS_MODELS
    SUBSURFACE_FLOW flow
      MODE RICHARDS
    /
  /
END

SUBSURFACE

GRID
  TYPE STRUCTURED
  NXYZ 1 1 1
  BOUNDS
    0. 0. 0.
    1. 1. 1.
  /
END

MATERIAL_PROPERTY soil1
  ID 1
  POROSITY 0.25d0
  CHARACTERISTIC_CURVES sf1
  PERMEABILITY
    PERM_ISO 1.d-12
  /
END

CHARACTERISTIC_CURVES sf1
  DEFAULT
END

TIME
  FINAL_TIME 1.d0 s
  INITIAL_TIMESTEP_SIZE 1.d0 s
  MAXIMUM_TIMESTEP_SIZE 1.d0 s
END

REGION all
  FACE WEST
  BLOCK 1 1 1 1 1 1
END

FLOW_CONDITION initial
  TYPE
    LIQUID_PRESSURE DIRICHLET
  /
  LIQUID_PRESSURE 101325.
END

INITIAL_CONDITION
  FLOW_CONDITION initial
  REGION all
END

STRATA
  MATERIAL soil1
  REGION all
END

END_SUBSURFACE
