!=========================== flow mode ========================================

SIMULATION
  SIMULATION_TYPE SUBSURFACE
  
  PROCESS_MODELS
 
    SUBSURFACE_FLOW flow
      MODE WIPP_FLOW
      OPTIONS
        DEFAULT_ALPHA
        GAS_COMPONENT_FORMULA_WEIGHT     2.01588D0 ! H2 kg/kmol
      END
    END
    
    SUBSURFACE_TRANSPORT  nw_trans
      MODE NWT
    END
    
    WELL_MODEL well01
    END
    
  END
END

!==============================================================================

SUBSURFACE

#=========================== numerical methods ================================
NUMERICAL_METHODS FLOW

  NEWTON_SOLVER
    LIQUID_RESIDUAL_INFINITY_TOL     1.d-6
    GAS_RESIDUAL_INFINITY_TOL        1.d-6
    MAX_ALLOW_REL_LIQ_PRES_CHANG_NI  1.d-5
    MAX_ALLOW_REL_GAS_SAT_CHANGE_NI  1.d-4
    GAS_SAT_THRESH_FORCE_EXTRA_NI    1.d-3
    GAS_SAT_THRESH_FORCE_TS_CUT      0.1d0
    MAX_ALLOW_GAS_SAT_CHANGE_TS      1.0d0
    MIN_LIQ_PRES_FORCE_TS_CUT       -1.d8   ! Pa
    MAX_ALLOW_LIQ_PRES_CHANGE_TS     1.d7   ! Pa
    DO_NOT_SCALE_JACOBIAN
  /

  LINEAR_SOLVER
    SOLVER DIRECT
  /

  TIMESTEPPER
    MAX_NUM_CONTIGUOUS_REVERTS 99
    TIMESTEP_OVERSTEP_REL_TOLERANCE 1.d-6
    TIMESTEP_REDUCTION_FACTOR 0.5
    TIMESTEP_MAXIMUM_GROWTH_FACTOR 1.25
    MAXIMUM_CONSECUTIVE_TS_CUTS 40
    MAXIMUM_NUMBER_OF_TIMESTEPS 20000
    NUM_STEPS_AFTER_TS_CUT 0
  END

END

NUMERICAL_METHODS TRANSPORT

  TIMESTEPPER
    NUM_STEPS_AFTER_TS_CUT 2
    DT_FACTOR 2.0 2.0 1.8 1.6 1.4 1.4 1.3 1.3 1.2 1.2 1.1 1.1
  /

  NEWTON_SOLVER
    ATOL 1.D-50
    STOL 1.D-5
    RTOL 1.D-5
    DTOL 1.D4 
    NWT_ITOL_RELATIVE_UPDATE 
      AM241L  1.0d-1
      PU239L  1.0d-1
    /

    NWT_ITOL_SCALED_RESIDUAL
      AM241L  1.D-3
      PU239L  1.D-3
    /
    NWT_ITOL_ABSOLUTE_RESIDUAL
      AM241L  1.D-10
      PU239L  1.D-7
    /
    #VERBOSE_LOGGING
    #PRINT_DETAILED_CONVERGENCE
    MAXIMUM_NUMBER_OF_ITERATIONS 6
  /

  LINEAR_SOLVER
    SOLVER DIRECT
  /

END


!=========================== discretization ===================================

GRID
  GRAVITY 0.0d0  0.0d+00  -9.8d0  ! use y as the vertical direction
  TYPE structured
  NXYZ 1 1 3
  BOUNDS
    0.d0 0.d0 0.d0
    1.d0 3.14159d0 300.d0
  /
END

!=========================== wellbore model ===================================
# All ordering begins at the bottom of the hole and goes towards 
# the top of the hole.
WELLBORE_MODEL

  #SINGLE_PHASE
  TWO_PHASE
  LIQUID_MOBILITY 476.19047619 # for kr =1 ; 1.0d-8     # mobility is kr/visc
  GAS_MOBILITY 1.0d-3        # mobility is kr/visc
  
  GRID
    NUMBER_OF_SEGMENTS 3
    TOP_OF_HOLE    5.0d-1 1.50d0 300.0d0  # [x,y,z] in meters
    BOTTOM_OF_HOLE 5.0d-1 1.5d0  0.0d0  # [x,y,z] in meters
  /

  WIPP_INTRUSION
    START_TIME 1.103760000d+10 # [sec] 350 yr
    END_TIME   3.155800000d+11 # [sec] 10,000 yr
  /
  
  # The number of values listed in the WELL sub-block needs to match the
  # number of segments. If all segments have the same value, then you can
  # provide a single value and it will be applied to all segments.
  WELL
    DIAMETER 2.d0 2.d0 2.d0 #1.2d0 1.3d0 1.4d0
    FRICTION_COEFFICIENT 1.0d-5
    WELL_INDEX 0.d0 0.d0 0.d0 # Turn off WI for development 1.0d0 1.0d0 1.0d0
    WELL_INDEX_MODEL PEACEMAN_ANISOTROPIC
    PERMEABILITY 1.d-13
    POROSITY 0.99d0
  /
  
  WELL_BOUNDARY_CONDITIONS
    BOTTOM_OF_HOLE
      #PRESSURE -1.d15 # [Pa]
      #PRESSURE_SET_BY_RESERVOIR
      LIQUID_RATE 8.19e-5 #m/s
      GAS_RATE 1.d-19
    /
    TOP_OF_HOLE
      PRESSURE 1.01325d5 # [Pa]
      #FLUX
    /
  /

  WELL_MODEL_TYPE
    #CONSTANT_RATE
    WIPP_DARCY
  /
  
  WELL_FLOW_SOLVER
    MAXIMUM_NUMBER_OF_ITERATIONS 6      ! default=8
    MAXIMUM_NUMBER_OF_TS_CUTS 5         ! default=20
    TIMESTEP_CUT_FACTOR 2               ! default 2
    ITOL_ABSOLUTE_RESIDUAL 1.0d-8       ! default=1.0d-8
    ITOL_SCALED_RESIDUAL 1.0d-5         ! default=1.0d-4
    ITOL_ABS_UPDATE_PRESSURE 1.0d0      ! default=1.0d0
    ITOL_ABS_UPDATE_SATURATION 1.0d-5   ! default=1.0d-5
    ITOL_REL_UPDATE_PRESSURE 1.0d-1     ! default=1.0d-1
    ITOL_REL_UPDATE_SATURATION 1.0d-1   ! default=1.0d-1
  /
  
  WELL_TRANSPORT_SOLVER
    MAXIMUM_NUMBER_OF_ITERATIONS 8      ! default=8
    MAXIMUM_NUMBER_OF_TS_CUTS 8         ! default=20
    TIMESTEP_CUT_FACTOR 3               ! default 2
    ITOL_ABSOLUTE_RESIDUAL 1.0d-8       ! default=1.0d-8
    ITOL_SCALED_RESIDUAL 1.0d-5         ! default=1.0d-4
    ITOL_ABSOLUTE_UPDATE 1.0d0          ! default=1.0d0
    ITOL_RELATIVE_UPDATE 1.0d-1         ! default=1.0d-1
  /
  
END

!=========================== fluid properties =================================

FLUID_PROPERTY
  DIFFUSION_COEFFICIENT 0.d0
END

EOS WATER
  DENSITY EXPONENTIAL 1.2200E+03 101325.d0 3.1000E-10 ! ref_dens ref_pres compres
  VISCOSITY CONSTANT 2.10000E-03
END

EOS GAS
  DENSITY IDEAL
  VISCOSITY CONSTANT 8.93389E-06
END

!=========================== material properties ==============================

MATERIAL_PROPERTY REPO
  ID 1
  CHARACTERISTIC_CURVES SF1
  POROSITY 9.9000000D-01
  TORTUOSITY 1.d0
  SOIL_COMPRESSIBILITY_FUNCTION POROSITY_EXPONENTIAL
  POROSITY_COMPRESSIBILITY 0.0D0
  SOIL_REFERENCE_PRESSURE INITIAL_PRESSURE
  PERMEABILITY
    PERM_ISO 1.0D-13
  /
END

!=========================== saturation functions =============================

CHARACTERISTIC_CURVES SF1
  SATURATION_FUNCTION BRAGFLO_KRP3
    LIQUID_RESIDUAL_SATURATION 2.d-1
    GAS_RESIDUAL_SATURATION    0.d0
    LAMBDA 7.0E-01
    MAX_CAPILLARY_PRESSURE 1.0d+08
    KPC 1
    PCT_A 0.000000E+00
    PCT_EXP 0.000000E+00
  /
  PERMEABILITY_FUNCTION BRAGFLO_KRP3_LIQ
    LIQUID_RESIDUAL_SATURATION 2.0E-01
    GAS_RESIDUAL_SATURATION    0.0E0
    LAMBDA 7.000000E-01
  /
  PERMEABILITY_FUNCTION BRAGFLO_KRP3_GAS
    LIQUID_RESIDUAL_SATURATION 2.0E-01
    GAS_RESIDUAL_SATURATION    0.0E0
    LAMBDA 7.000000E-01
  /
END

!=========================== regions ==========================================

REGION rgs_repo
  COORDINATES
    -1.d20 -1.d20 -1.d20
     1.d20  1.d20  1.d20
  /
END

REGION bc_face_bottom
  FACE BOTTOM
  COORDINATES
    0.d0 0.d0 0.d0
    1.d0 3.14159d0 0.d0
  /
END

REGION bc_face_top
  FACE TOP
  COORDINATES
    0.d0 0.d0 300.d0
    1.d0 3.14159d0 300.d0
  /
END

!=========================== stratigraphy couplers ============================

STRATA
  MATERIAL REPO
  REGION rgs_repo
END

!=========================== flow conditions ==================================
FLOW_CONDITION bc
  TYPE
    LIQUID_PRESSURE DIRICHLET
    LIQUID_SATURATION DIRICHLET
  /
  LIQUID_PRESSURE 1.0d7 Pa
  LIQUID_SATURATION 0.99d0
END

FLOW_CONDITION initial
  TYPE
    LIQUID_PRESSURE DIRICHLET
    LIQUID_SATURATION DIRICHLET
  /
  LIQUID_PRESSURE 1.0d7 Pa
  LIQUID_SATURATION 0.99d0
END

!=========================== transport conditions =============================
TRANSPORT_CONDITION transport_initial_condition
  TYPE dirichlet_zero_gradient
  CONSTRAINT_LIST
    ! time[s]    constraint
    0.0d0      constraint_chemistry_initial
  /
END

TRANSPORT_CONDITION transport_bc_condition
  TYPE dirichlet_zero_gradient
  CONSTRAINT_LIST
    ! time[s]    constraint
    0.0d0      constraint_chemistry_bc
  /
END

!=========================== condition couplers ===============================

INITIAL_CONDITION
  FLOW_CONDITION initial
  TRANSPORT_CONDITION transport_initial_condition
  REGION rgs_repo
END

BOUNDARY_CONDITION
  FLOW_CONDITION initial
  TRANSPORT_CONDITION transport_bc_condition
  REGION bc_face_top
END

BOUNDARY_CONDITION
  FLOW_CONDITION initial
  TRANSPORT_CONDITION transport_bc_condition
  REGION bc_face_bottom
END

!=============================== transport ====================================
NUCLEAR_WASTE_CHEMISTRY

  SPECIES
    NAME                 AM241L
    SOLUBILITY           3.08531847680638d-03    # [mol/m^3-liq]
    PRECIP_MOLAR_DENSITY 38.61d3                 # [mol/m^3-mnrl] (quartz example)
    ELEMENTAL_KD         0.0d0                   # [m^3-water/m^3-bulk]
  /

  SPECIES
    NAME                      PU239L
    SOLUBILITY                5.94620667361208d-03   # [mol/m^3-liq]
    PRECIPITATE_MOLAR_DENSITY 38.61d3                # [mol/m^3-mnrl] (quartz example)
    ELEMENTAL_KD              0.0d0                  # [m^3-water/m^3-bulk]
  /                     

  OUTPUT
    ALL_SPECIES
    ALL_CONCENTRATIONS
    MINERAL_VOLUME_FRACTION
  /

END

!=========================== transport constraints ============================

CONSTRAINT constraint_chemistry_initial
  CONCENTRATIONS
   ! species_name  concentration  constraint_type 
   ! AQ is for aqueous concentration [mol/m^3-liq]

    AM241L    1.d-20    AQ  # [mol/m^3-liq]
    PU239L    1.d-20    AQ  # [mol/m^3-liq]
  /
END

CONSTRAINT constraint_chemistry_bc
  CONCENTRATIONS
   ! species_name  concentration  constraint_type 
   ! AQ is for aqueous concentration [mol/m^3-liq]

    AM241L    1.d-20    AQ  # [mol/m^3-liq]
    PU239L    1.d-20    AQ  # [mol/m^3-liq]
  /
END

!=========================== times ============================================

TIME
  FINAL_TIME 1.d0 d
  INITIAL_TIMESTEP_SIZE 2.5d-2 d
  MAXIMUM_TIMESTEP_SIZE 55.d0 d
END

!=========================== output options ===================================
OUTPUT 
  SNAPSHOT_FILE
    PERIODIC TIME 1.d-1 d
    FORMAT TECPLOT POINT
  /
END

!==============================================================================
END_SUBSURFACE
!==============================================================================

