#Description: Redox ladder (incubation), with ELM CTC bgc sandboxes
# Rate constants estimated to show different processes

SIMULATION
  SIMULATION_TYPE SUBSURFACE
  PROCESS_MODELS
    SUBSURFACE_TRANSPORT transport
      GLOBAL_IMPLICIT
    /
  /

END

SUBSURFACE

#+++++++++++++++++++++++ I. DOMAINS +++++++++++++++++++++++++++++++++++++++++++++++++++++++++++
#
skip    ! if skipped, CLM grids will be enforced to replace PF-mesh defined below (discretization/region) 
#======================= I-0. CLM <==> PFLOTRAN domain mapping files ==========
MAPPING_FILES                   
  !
END
noskip

#======================= I-1. discretization ===================================
# NOTE: the following ONLY provides required data initialization, and will be 
#       over-riddn by CLM domains.
GRID
  TYPE structured
  ORIGIN 0.d0 0.d0 0.d0
  NXYZ 1 1 15
  DXYZ 
     1.0d1 
     1.0d1 
     13.851152141963599d0 \
     11.126150294204420d0 \ 
     6.7483512780057175d0 \ 
     4.0930819526214002d0 \ 
     2.4825796969813321d0 \     
     1.5057607013992766d0 \
     0.91329003158906108d0 \
     0.55393840536868488d0 \
     0.33598062644843263d0 \
     0.20378255101043175d0 \
     0.12360036510228053d0 \     
     0.074967410986208557d0 \
     !0.04547003324241320d0 \    !! reducing 0.005 m to add into the 1st layer      
     0.04047003324241320d0 \      
     0.027578969259676251d0 \
     !0.017512817916255204d0     !! Appears this 1st CLM layer is so thin that not good for solver!
     0.022512817916255204d0
  /
END

PROC 1 1 1

#======================= I-2.regions ===========================================
REGION top
  COORDINATES
    -1.d20 -1.d20 42.103197276099188d0
    1.0d20 1.0d20 42.103197276099188d0
  /
  FACE TOP
END

REGION bottom
  COORDINATES
    -1.d20 -1.d20 0.0d0
    1.0d20 1.0d20 0.0d0
  /
  FACE BOTTOM
END

REGION all
  COORDINATES
    -1.d20 -1.d20 0.0d0
    1.0d20 1.0d20 42.103197276099188d0
  /
  FACE TOP
END

#=========================== useful transport parameters =======================
SPECIFIED_VELOCITY
  UNIFORM? YES
  DATASET 0.d0 0.d0 0.d0
END

REFERENCE_LIQUID_DENSITY 1.d3

#=========================== chemistry ========================================
CHEMISTRY
  PRIMARY_SPECIES
    NH4+
    NO3-
    O2(aq)
    N2(aq)
    N2O(aq)
    H+
    DOM1
    DOM2
    DOM3
    HCO3-
    CH4(aq)
    SO4--
    H2S(aq)
    Na+
    Cl-
    Ca++
    H2O
    HS-
    Fe+++
    Fe++
  /
  SECONDARY_SPECIES
    NH3(aq)
    OH-
    CO3--
    NH4SO4-
    Urea(aq)
    HSO4-
    H2SO4(aq)
    HNO3(aq)    
    NaNO3(aq)
    NaCl(aq)
    NaSO4-
    NaCO3-
    NaHCO3(aq)
    HCl(aq)
    CaCO3(aq)
    CaCl+
    CaCl2(aq)
    CaHCO3+
    CaSO4(aq)
    CO(aq)
    CO2(aq)
    Acetic_acid(aq)
    S--

#Fe++
    FeOH+
    FeSO4(aq)
    FeHCO3+
    Fe(OH)2(aq)
    Fe(OH)3-
    Fe(OH)4--
    FeCO3(aq)
    FeCH3COO+
    FeCl+  
    FeCl4--  
    FeCl2(aq)

#Fe+++
    FeNO3++
    FeSO4+
    FeCO3+ #flatlines [Fe+++]  
    FeOH++ #flatlines [Fe+++]    
    Fe(OH)2+ #causes exponential increase in [Fe+++]
    Fe(OH)3(aq) #causes exponential increase in [Fe+++]
    Fe(OH)4- #causes exponential increase in [Fe+++]
    FeCl++
    FeCl4-

  /
  DECOUPLED_EQUILIBRIUM_REACTIONS
    NO3-
    N2(aq)
    CH4(aq)
    H2S(aq)
    HS-

  /
  MINERALS
    SOM1
    Calcite
    Pyrite
    Troilite
    Fe(OH)3
    Halite
    Fe
    Fe(OH)2
    FeO
    Ferrihydrite
    Goethite
    Hematite
    Magnetite
    Pyrrhotite
    Sulfur
    Wustite
  /
  
  IMMOBILE_SPECIES
    nitrifiers
    denitrifiers
    MPB
    methanogens
    SOM2
    SOM3

    ! CTC-CN specific species ----------------------------------------------------------------------------------
    SOIL1           ! SOM component 1, fixed C/N ratio
    SOIL2           ! SOM component 2, fixed C/N ratio
    SOIL3           ! SOM component 3, fixed C/N ratio
    SOIL4           ! SOM component 4, fixed C/N ratio
    LITR1C          ! LITTER component 1
    LITR2C          ! LITTER component 2
    LITR3C          ! LITTER component 3
    LITR1N          ! 
    LITR2N          ! 
    LITR3N          ! Coarse Woody Debris
    CWDC            ! 
    CWDN            ! 
    NH4sorb         ! NH4+ in absorbed state used in absorption sandbox
    PlantN          ! total plant N pool
    Plantndemand    ! accumulative plant uptake (for tracking)
    Plantnh4uptake  ! accumulative plant uptake (for tracking)
    Plantno3uptake  ! accumulative plant uptake (for tracking)
    NGASmin         ! accumulative N gas emission from mineralization (for tracking)
    NGASnitr        ! accumulative N gas emission from nitrification (for tracking)
    NGASdeni        ! accumulative N gas emission from denitrification (for tracking)
    HRimm           ! Total CO2 released (HR) during decomposition (for tracking)
    Nmin            ! Total Gross Soil Inorg. N mineralized during decomposition (for tracking)
    Nimp            ! Total Potential Soil Inorg. N immoblized during decomposition (for tracking)
    Nimm            ! Total Actual Soil Inorg. N immoblized during decomposition (for tracking)
    ! CTC-CN specific species ----------------------------------------------------------------------------------

  /
  
  GAS_SPECIES
    CO2(g)
    O2(g)
    N2(g)*
    N2O(g)
    NH3(g)
  /
  
  MINERAL_KINETICS
    Fe
      RATE_CONSTANT 1.d-26 mol/m^2-sec
      /
    Fe(OH)2
      RATE_CONSTANT 1.d-16 mol/m^2-sec
      /
    FeO
      RATE_CONSTANT 1.d-16 mol/m^2-sec
      /
    Ferrihydrite
      RATE_CONSTANT 1.d-16 mol/m^2-sec
      /
    Goethite
      RATE_CONSTANT 1.d-16 mol/m^2-sec
      /
    Hematite
      RATE_CONSTANT 1.d-16 mol/m^2-sec
      /
    Magnetite
      RATE_CONSTANT 1.d-16 mol/m^2-sec
      /
    Pyrrhotite
      RATE_CONSTANT 1.d-16 mol/m^2-sec
      /
    Sulfur
      RATE_CONSTANT 1.d-16 mol/m^2-sec
      /
    Wustite
      RATE_CONSTANT 1.d-16 mol/m^2-sec
      /
    Calcite
      RATE_CONSTANT 1.d-18
      /
    Pyrite
      RATE_CONSTANT 1.d-18
      /
    Troilite
      RATE_CONSTANT 1.d-16
      /
    Fe(OH)3
      RATE_CONSTANT 1.d-18
      /
    Halite
      RATE_CONSTANT 1.d-18
      /

    SOM1
      PREFACTOR
        RATE_CONSTANT 2.d-16 mol/cm^2-sec
        ACTIVATION_ENERGY 51.7d0
        PREFACTOR_SPECIES O2(aq)
          ALPHA 0.5d-1
        /
      /   
    /  
  /


  REACTION_SANDBOX
    ! (Begin) ELM CTC-CN SOM decomposition sandboxes -------------------------------------------------------------------
    SOMDECOMP
      
      POOLS   ! CN ratio if constant
        SOIL1  12.d0 
        SOIL2  12.d0
        SOIL3  10.d0
        SOIL4  10.d0
        LITR1
        LITR2    
        LITR3
        CWD
        DOM1   5.0d0
        DOM2   5.0d0
        DOM3   5.0d0
      /
     
      REACTION
        UPSTREAM_POOL CWD
        DOWNSTREAM_POOL LITR2 0.76d0           ! sum of fractions to LITR2+LITR3 = 1. (NO hr!)
        DOWNSTREAM_POOL LITR3 0.24d0
        RATE_DECOMPOSITION 0.00010 1/d         ! CLM-CN fragmentation rate k:
      /

      REACTION
        UPSTREAM_POOL LITR1
        DOWNSTREAM_POOL SOIL1 0.61d0
        DOWNSTREAM_POOL DOM1 0.061d0
        RATE_DECOMPOSITION 1.204 1/d           ! CLM-CN dec. rate k:
        !
        MONOD
          SPECIES_NAME  NH4+ 
          HALF_SATURATION_CONSTANT 1.0d-5          ! unit: moles/m3 soil - much faster if <1.d-5 (~1.d-10 g/gsoil)
        /
        MONOD
          SPECIES_NAME  NO3- 
          HALF_SATURATION_CONSTANT 1.0d-5          ! unit: moles/m3 soil - much faster if <1.d-5 (~1.d-10 g/gsoil)
        /
      /

      REACTION
        UPSTREAM_POOL LITR2    
        DOWNSTREAM_POOL SOIL2 0.45d0
        DOWNSTREAM_POOL DOM2 0.045d0
        RATE_DECOMPOSITION 0.0726 1/d          ! CLM-CN dec. rate k: 
        !
        MONOD
          SPECIES_NAME  NH4+ 
          HALF_SATURATION_CONSTANT 1.0d-5          ! unit: moles/m3 soil - much faster if <1.d-5 (~1.d-10 g/gsoil)
        /
        MONOD
          SPECIES_NAME  NO3- 
          HALF_SATURATION_CONSTANT 1.0d-5          ! unit: moles/m3 soil - much faster if <1.d-5 (~1.d-10 g/gsoil)
        /
      /

      REACTION
        UPSTREAM_POOL LITR3
        DOWNSTREAM_POOL SOIL3 0.71d0
        DOWNSTREAM_POOL DOM3 0.071d0
        RATE_DECOMPOSITION 0.0141 1/d          ! CLM-CN dec. rate k: 
        !
        MONOD
          SPECIES_NAME  NH4+ 
          HALF_SATURATION_CONSTANT 1.0d-5          ! unit: moles/m3 soil - much faster if <1.d-5 (~1.d-10 g/gsoil)
        /
        MONOD
          SPECIES_NAME  NO3- 
          HALF_SATURATION_CONSTANT 1.0d-5          ! unit: moles/m3 soil - much faster if <1.d-5 (~1.d-10 g/gsoil)
        /

      /

      REACTION
        UPSTREAM_POOL SOIL1
        DOWNSTREAM_POOL SOIL2 0.72d0
        DOWNSTREAM_POOL DOM1 0.071d0
        RATE_DECOMPOSITION 0.0726 1/d          ! CLM-CN dec. rate k: 
      /
      REACTION
        UPSTREAM_POOL SOIL2
        DOWNSTREAM_POOL SOIL3 0.54d0
        DOWNSTREAM_POOL DOM2 0.041d0
        RATE_DECOMPOSITION 0.0141 1/d          ! CLM-CN dec. rate k:
      /
      REACTION
        UPSTREAM_POOL SOIL3
        DOWNSTREAM_POOL SOIL4 0.45d0
        DOWNSTREAM_POOL DOM3 0.045d0
        RATE_DECOMPOSITION 0.00141 1/d         ! CLM-CN dec. rate k: 
        RATE_AD_FACTOR 10.0d0                  ! Accelerated decomposition factor
      /       
      REACTION
        UPSTREAM_POOL SOIL4
        DOWNSTREAM_POOL DOM3 0.010d0
        RATE_DECOMPOSITION 0.00010 1/d         ! CLM-CN dec. rate k: 
        RATE_AD_FACTOR 100.0d0                 ! Accelerated decomposition factor
      /
      
      AMMONIUM_INHIBITION_NITRATE 10.0d0       ! ratio of NH4/NO3

      N2O_FRAC_MINERALIZATION 0.02d0           ! max. fraction of net mineralization for gaseous emission          
    
    /
    ! (End) ELM CTC-CN SOM decomposition sandboxes ---------------------------------------------------------------------
   
    ! (Begin) ELM CTC-CN PLANT N uptake sandboxes ----------------------------------------------------------------------
    PLANTN
      AMMONIUM_HALF_SATURATION 1.0d-05
      NITRATE_HALF_SATURATION 1.0d-05
      AMMONIUM_INHIBITION_NITRATE 10.0d0
    /
  ! (End) ELM CTC-CN PLANT N uptake sandboxes ------------------------------------------------------------------------
  / ! REACTION_SANDBOX


  TRUNCATE_CONCENTRATION 1.d-15


#DOM RESPIRATION
  GENERAL_REACTION
    REACTION DOM1 + O2(aq) + H2O -> DOM2 + HCO3- + H+ 
    FORWARD_RATE 9.d-1
    BACKWARD_RATE 0.d0
  /

#NITRIFICATION
  MICROBIAL_REACTION
    REACTION 4.d0 NH4+ + O2(aq) + 6.0 HCO3- -> 4.d0 NO3- + DOM1 + 2.d0 H2O + 6.d0 H+
    RATE_CONSTANT 5.0d-4 #Thompson et al 1995 mol-m3 bulk/(L water-mol biomass-sec)
    MONOD
      SPECIES_NAME NH4+ 
      HALF_SATURATION_CONSTANT 0.1d-3 #Gao et al 2010
    /
    INHIBITION
      SPECIES_NAME HCO3-
      TYPE INVERSE_MONOD
      INHIBITION_CONSTANT 6.25d-10
    /
    INHIBITION
      SPECIES_NAME O2(aq)
      TYPE INVERSE_MONOD
      INHIBITION_CONSTANT 6.25d-8
    /
  /

#DENITRIFICATION DOM1
  MICROBIAL_REACTION 
    REACTION DOM1 + 4.d0 NO3- -> DOM2 + 6.d0 HCO3- + 2.d0 N2(aq) + 6.d0 H+
    RATE_CONSTANT 5.56d1 #Thompson et al 1995 mol-m3 bulk/(L water-mol biomass-sec)
    MONOD
      SPECIES_NAME NO3-
      HALF_SATURATION_CONSTANT 6.3d-2  #Gao et al 2010
    /
    MONOD
      SPECIES_NAME DOM1
      HALF_SATURATION_CONSTANT 5.d-2
    /
    INHIBITION
      SPECIES_NAME O2(aq)
      TYPE MONOD
      INHIBITION_CONSTANT 6.25d-8   #using hypoxia as a requirement O2 must be < 2mg/L for DEN
    /
    BIOMASS
      SPECIES_NAME denitrifiers
      YIELD 0.01d0
    /
  /

#DENITRIFICATION DOM2
  MICROBIAL_REACTION 
    REACTION DOM2 + 8.d0 NO3- -> DOM3 + 8.d0 HCO3- + 4.d0 N2(aq) + 12.d0 H+
    RATE_CONSTANT 5.56d0 #Thompson et al 1995 mol-m3 bulk/(L water-mol biomass-sec)
    MONOD
      SPECIES_NAME NO3-
      HALF_SATURATION_CONSTANT 6.3d-2  #Gao et al 2010
    /
    MONOD
      SPECIES_NAME DOM2
      HALF_SATURATION_CONSTANT 5.d-2
    /
    INHIBITION
      SPECIES_NAME O2(aq)
      TYPE MONOD
      INHIBITION_CONSTANT 6.25d-8   #using hypoxia as a requirement O2 must be < 2mg/L for DEN
    /
    BIOMASS
      SPECIES_NAME denitrifiers
      YIELD 0.01d0
    /
  /

#IRON REDUCTION DOM2
  MICROBIAL_REACTION 
    REACTION DOM2 + 3.d0 Fe+++ + H2O -> DOM3 + 3.d0 Fe++ + 6.d0 HCO3- + 15.d0 H+ 
    RATE_CONSTANT 2.d-2 #Thompson et al 1995 mol-m3 bulk/(L water-mol biomass-sec)
    MONOD
      SPECIES_NAME Fe+++
      HALF_SATURATION_CONSTANT 1.3d-2  #Gao et al 2010
    /
    MONOD
      SPECIES_NAME DOM2
      HALF_SATURATION_CONSTANT 2.d-2
    /
    INHIBITION
      SPECIES_NAME O2(aq)
      TYPE MONOD
      INHIBITION_CONSTANT 6.25d-8   #using hypoxia as a requirement O2 must be < 2mg/L for DEN
    /
    INHIBITION
      SPECIES_NAME NO3-
      TYPE MONOD
      INHIBITION_CONSTANT 1.25d-8
    /
    BIOMASS
      SPECIES_NAME denitrifiers
      YIELD 0.01d0
    /
  /


#Sulfate reduction
  MICROBIAL_REACTION 
    REACTION DOM2 + 6.d0 SO4-- + 2.0 H2O -> 12.d0 HCO3- + DOM3 + 6.d0 H2S(aq) 
    RATE_CONSTANT 2.56d2 #Thompson et al 1995 mol-m3 bulk/(L water-mol biomass-sec)
    MONOD
      SPECIES_NAME SO4--
      HALF_SATURATION_CONSTANT 6.3d-2  #Gao et al 2010
    /
    MONOD
      SPECIES_NAME DOM2
      HALF_SATURATION_CONSTANT 6.3d0  #Gao et al 2010
    /
    INHIBITION
      SPECIES_NAME NO3-
      TYPE MONOD
      INHIBITION_CONSTANT 6.25d-8
    /
    INHIBITION
      SPECIES_NAME O2(aq)
      TYPE MONOD
      INHIBITION_CONSTANT 6.25d-5   #using hypoxia as a requirement O2 must be < 2mg/L for DEN
    /
    INHIBITION
      SPECIES_NAME Fe+++
      TYPE MONOD
      INHIBITION_CONSTANT 6.25d-5
    /
    BIOMASS
      SPECIES_NAME methanogens
      YIELD 0.01d0
    /
  /
skip
#Sulfate oxidation
  MICROBIAL_REACTION 
    REACTION CH4(aq) + SO4-- -> HCO3- + H2O + HS- 
    RATE_CONSTANT 9.56d2 #Thompson et al 1995 mol-m3 bulk/(L water-mol biomass-sec)
    MONOD
      SPECIES_NAME SO4--
      HALF_SATURATION_CONSTANT 6.3d-2  #Gao et al 2010
    /
    MONOD
      SPECIES_NAME CH4(aq)
      HALF_SATURATION_CONSTANT 6.3d0  #Gao et al 2010
    /
    INHIBITION
      SPECIES_NAME NO3-
      TYPE MONOD
      INHIBITION_CONSTANT 6.25d-5
    /
    INHIBITION
      SPECIES_NAME O2(aq)
      TYPE MONOD
      INHIBITION_CONSTANT 6.25d-5   #using hypoxia as a requirement O2 must be < 2mg/L for DEN
    /
    BIOMASS
      SPECIES_NAME methanogens
      YIELD 0.01d0
    /
  /
noskip
#Methanogenesis DOM2
  MICROBIAL_REACTION 
    REACTION 2.d0 HCO3- + DOM2 + 88.d0 H+ -> 14.d0 CH4(aq) + 16.d0 H2O + DOM3
    RATE_CONSTANT 10.56d3 #Thompson et al 1995 mol-m3 bulk/(L water-mol biomass-sec)
    MONOD
      SPECIES_NAME DOM2
      HALF_SATURATION_CONSTANT 6.3d0  #Gao et al 2010
    /
    MONOD
      SPECIES_NAME HCO3-
      HALF_SATURATION_CONSTANT 6.3d5  #Gao et al 2010
    /
    INHIBITION
      SPECIES_NAME SO4--
      TYPE MONOD
      INHIBITION_CONSTANT 6.25d-8
    /
    INHIBITION
      SPECIES_NAME NO3-
      TYPE MONOD
      INHIBITION_CONSTANT 6.25d-8   #using hypoxia as a requirement O2 must be < 2mg/L for DEN
    /
    BIOMASS
      SPECIES_NAME methanogens
      YIELD 0.01d0
    /
  /
  
#Methanogenesis DOM3
  MICROBIAL_REACTION 
    REACTION 2.d0 HCO3- + DOM3 + 66.d0 H+ -> 12.d0 CH4(aq) + 9.d0 H2O + SOM3
    RATE_CONSTANT 10.56d2 #Thompson et al 1995 mol-m3 bulk/(L water-mol biomass-sec)
    MONOD
      SPECIES_NAME DOM3
      HALF_SATURATION_CONSTANT 6.3d0  #Gao et al 2010
    /
    MONOD
      SPECIES_NAME HCO3-
      HALF_SATURATION_CONSTANT 6.3d0  #Gao et al 2010
    /
    INHIBITION
      SPECIES_NAME SO4--
      TYPE MONOD
      INHIBITION_CONSTANT 6.25d-8
    /
    INHIBITION
      SPECIES_NAME NO3-
      TYPE MONOD
      INHIBITION_CONSTANT 6.25d-8   #using hypoxia as a requirement O2 must be < 2mg/L for DEN
    /
    BIOMASS
      SPECIES_NAME methanogens
      YIELD 0.01d0
    /
  /

 # LOG_FORMULATION
  DATABASE ./TAI_database.dat

  OUTPUT
    !PH
    TOTAL
    PRIMARY_SPECIES
    SECONDARY_SPECIES
    IMMOBILE
    GASES
    MINERALS
  /
END

#=========================== transport constraints ============================
CONSTRAINT initial
  CONCENTRATIONS
    NH4+        3.d-5      T
    NO3-        4.5d-10    T
    O2(aq)      1.06d-4    T #G  O2(g)
    N2(aq)      4.65d-15   G N2(g)*
    N2O(aq)     4.65d-15   G N2O(g) 
    H+          4.d0       P
    DOM1        1.d-15     T
    DOM2        1.d-15     T
    DOM3        1.d-15     T
    HCO3-       6.6d-4     G CO2(g)
    CH4(aq)     1.d-15     T
    SO4--       2.8e-5     T
    H2S(aq)     1.d-15     T
    Na+         4.69d-2    T
    Cl-         5.46d-2    T
    Ca++        0.01d0     T Calcite
    H2O         5.56d1     T
    HS-         1.d-15     T
    Fe++        1.d-15     T Pyrite
    Fe+++       3.5d-5     T Fe(OH)3
    /
  IMMOBILE     # [mol/m^3 bulk]
    nitrifiers    1.d-8
    denitrifiers  1.d-8
    MPB           1.d-8
    methanogens   1.d-8
    SOM2          1.d-20
    SOM3          1.d-20

    SOIL1          1.d-20      ! [moles C/m^3 bulk]
    SOIL2          1.d-20
    SOIL3          1.d-20
    SOIL4          1.d-20
    CWDC           1.d-20
    LITR1C         0.1852d-3
    LITR2C         0.4578d-3
    LITR3C         0.2662d-3
    LITR1N         0.00508954d-3
    LITR2N         0.01258096d-3
    LITR3N         0.00731553d-3
    CWDN           0.2d-22
    NH4sorb        1.d-20
    PlantN         1.d-20
    Plantndemand   1.d-20     ! 0-resetting its value at end of a CLM time-step, when coupled
    Plantnh4uptake 1.d-20     ! 0-resetting its value at end of a CLM time-step, when coupled
    Plantno3uptake 1.d-20     ! 0-resetting its value at end of a CLM time-step, when coupled
    NGASmin        1.d-20     ! 0-resetting its value at end of a CLM time-step, when coupled
    NGASnitr       1.d-20     ! 0-resetting its value at end of a CLM time-step, when coupled
    NGASdeni       1.d-20     ! 0-resetting its value at end of a CLM time-step, when coupled
    HRimm          1.d-20  
    Nmin           1.d-20  
    Nimm           1.d-20  
    Nimp           1.d-20  
    /
       
  MINERALS
    SOM1          2.d-2     1. cm^2/cm^3
    Calcite       0.d0      1. cm^2/cm^3
    Pyrite        1.d-8     1. cm^2/cm^3
    Troilite      1.d-10    1. cm^2/cm^3
    Fe(OH)3       1.d-10    1. cm^2/cm^3
    Halite        1.d-10    1. cm^2/cm^3
    Fe            1.75d-12  1. cm^2/cm^3
    Fe(OH)2       1.75d-12  1. cm^2/cm^3
    FeO           1.75d-12  1. cm^2/cm^3
    Ferrihydrite  1.75d-12  1. cm^2/cm^3
    Goethite      1.75d-12  1. cm^2/cm^3
    Hematite      1.75d-12  1. cm^2/cm^3
    Magnetite     1.75d-12  1. cm^2/cm^3
    Pyrrhotite    1.75d-12  1. cm^2/cm^3
    Sulfur        1.75d-12  1. cm^2/cm^3
    Wustite       1.75d-12  1. cm^2/cm^3
    /
END

#=========================== solver options ===================================
LINEAR_SOLVER TRANSPORT
  !SOLVER DIRECT
  SOLVER ITERATIVE     ! default: ITERATIVE or KRYLOV: KSP_TYPE of BCGS and PC_TYPE of BJACOBI, if not modified below
  PC_TYPE JACOBI       ! default (iterative): BJACOBI. 
  KSP_TYPE fgmres      ! default: BCGS. NOT much difference 
END

NEWTON_SOLVER TRANSPORT
  ATOL 1.d-20
  RTOL 1.d-15
  STOL 1.d-10
  ITOL 1.d-10
END

#=========================== fluid properties =================================
FLUID_PROPERTY
  PHASE LIQUID
  DIFFUSION_COEFFICIENT 1.d-9
END

FLUID_PROPERTY
  PHASE gas
  DIFFUSION_COEFFICIENT 1.000d-05
END

#=========================== material properties ==============================
MATERIAL_PROPERTY soil1
  ID 1
  POROSITY 0.25d0
  TORTUOSITY 1.d0
  SATURATION_FUNCTION default
END

# == saturation / permeability functions ======================================
SATURATION_FUNCTION HD
SATURATION_FUNCTION_TYPE VAN_GENUCHTEN
RESIDUAL_SATURATION 0.115
LAMBDA 0.286
ALPHA 1.9401d-4
/

#=========================== output options ===================================
OUTPUT
  !PERIODIC_OBSERVATION TIMESTEP 1
  SCREEN PERIODIC 10
  PERIODIC TIMESTEP 1
  FORMAT HDF5
END

#=========================== times ============================================
TIME
  FINAL_TIME 400.d0 d
  INITIAL_TIMESTEP_SIZE 0.5d0 h
  MAXIMUM_TIMESTEP_SIZE 12.d0 h
END

#=========================== regions ==========================================
REGION obs_pt
  COORDINATE 0.5 0.5 1.9
END

#=========================== observation points ===============================
OBSERVATION
  REGION obs_pt
END

#=========================== transport conditions =============================
TRANSPORT_CONDITION initial
  TYPE zero_gradient
  CONSTRAINT_LIST
    0.d0 initial
  /
END



#=========================== condition couplers ===============================
# initial condition
INITIAL_CONDITION
  TRANSPORT_CONDITION initial
  REGION all
END

#=========================== stratigraphy couplers ============================
STRATA
  REGION all
  MATERIAL soil1
END

#=========================== regression =======================================
REGRESSION
  CELLS
    1
    5
    10
    15
  /
END

#
END_SUBSURFACE
#
#+++++++++++++++++++++++++++++++++++++++++++++++++++++++++++++++++++++++++++++++++++++++++++
