# Description: Simple microbial decomposition and dissolution to DOM network
# Rate constants estimated to show different processes

SIMULATION
  SIMULATION_TYPE SUBSURFACE
  PROCESS_MODELS
    SUBSURFACE_TRANSPORT transport
      MODE GIRT
      OPTIONS
      /
    /
  /

END



SUBSURFACE

#=========================== useful transport parameters =======================
SPECIFIED_VELOCITY
  UNIFORM? YES
  DATASET 0.d0 0.d0 0.d0
END

REFERENCE_LIQUID_DENSITY 1.d3
REFERENCE_TEMPERATURE 10.d0

#=========================== chemistry ========================================
CHEMISTRY
  PRIMARY_SPECIES
    DOM1
    CO2(aq)
    NH4+
  /
  DECOUPLED_EQUILIBRIUM_REACTIONS
    CO2(aq)
    NH4+
  /
  
  IMMOBILE_SPECIES
    POM
    SOIL_MICROBES
    SOM2
  /
  PASSIVE_GAS_SPECIES
    CO2(g)*
  /
  
  REACTION_SANDBOX
    SOMDECOMP
      POOLS
        POM           15.d0
        SOIL_MICROBES 10.d0
        SOM2          10.d0
        DOM1          20.d0
      /

      Abiotic_Factors
        TEMPERATURE_RESPONSE_FUNCTION 
          Q10 2.0d0
        /
      /

      # POM decomposition
      REACTION
        UPSTREAM_POOL POM
        DOWNSTREAM_POOL SOIL_MICROBES 0.6d0
        TURNOVER_TIME 0.5d0 y
        MONOD # Note, in my experience a modified monod function that normalizes by substrate biomass works better
          SPECIES_NAME SOIL_MICROBES 
          HALF_SATURATION_CONSTANT 0.1d-3
        /
      /

      # Turnover of microbial biomass
      REACTION
        UPSTREAM_POOL SOIL_MICROBES
        DOWNSTREAM_POOL SOM2 0.1d0
        TURNOVER_TIME 0.1d0 y
        # Inhibit turnover at very small concentrations so some residual biomass remains under adverse conditions
        INHIBITION
          SPECIES_NAME SOIL_MICROBES
          TYPE INVERSE_MONOD
          INHIBITION_CONSTANT 1.0d-11
        /
        Abiotic_Factors
          TEMPERATURE_RESPONSE_FUNCTION 
            ARRHENIUS 51.7d3
          /
        /
      /
      
      # Microbial decomposition of SOM2
      REACTION
        UPSTREAM_POOL SOM2
        DOWNSTREAM_POOL SOIL_MICROBES 0.1d0
        TURNOVER_TIME 10.d0 y
        MONOD 
          SPECIES_NAME SOIL_MICROBES
          HALF_SATURATION_CONSTANT 0.1d-3
        /
      /
      
      # Dissolution into DOM
      REACTION
        UPSTREAM_POOL POM
        DOWNSTREAM_POOL DOM1 1.0d0
        TURNOVER_TIME 0.1d0 y
        INHIBITION # High DOM accumulation will stop the dissolving process (reaching equilibrium)
          SPECIES_NAME DOM1
          TYPE MONOD
          INHIBITION_CONSTANT 1.d-11
       /
      /
   
    / # (end) Block 'SOMDECOMP'
  / # (end) Block 'REACTION_SANDBOX'
  

  TRUNCATE_CONCENTRATION 1.d-15

  !LOG_FORMULATION
  DATABASE ./TAI_database.dat

  OUTPUT
    !PH
    TOTAL
    PRIMARY_SPECIES
    SECONDARY_SPECIES
    GASES
    MINERALS
    IMMOBILE

  /
END

#=========================== transport constraints ============================
CONSTRAINT initial
  CONCENTRATIONS 
    DOM1        1.d-15     T
    CO2(aq)     1.d-15     T
    NH4+        1.d-15     T
    /
  IMMOBILE     # [mol/m^3 bulk]
    POM          1.d-8
    SOIL_MICROBES  1.d-10
    SOM2      1.d-13
    /
  
END

#=========================== solver options ===================================
NUMERICAL_METHODS TRANSPORT
  LINEAR_SOLVER
    !SOLVER DIRECT
    SOLVER ITERATIVE     ! default: ITERATIVE or KRYLOV: KSP_TYPE of BCGS and PC_TYPE of BJACOBI, if not modified below
    PC_TYPE JACOBI       ! default (iterative): BJACOBI. 
    KSP_TYPE fgmres      ! default: BCGS. NOT much difference 
  /

  NEWTON_SOLVER
    NUMERICAL_JACOBIAN
    ATOL 1.d-20
    RTOL 1.d-10
    STOL 1.d-10
    ITOL 1.d-10
  /
END

#=========================== discretization ===================================
GRID
  TYPE structured
  ORIGIN 0.d0 0.d0 0.d0
  NXYZ 1 1 1
  DXYZ
    1.d0
    1.d0
    10.d0
  /
END

#=========================== fluid properties =================================
FLUID_PROPERTY
  PHASE LIQUID
  DIFFUSION_COEFFICIENT 1.d-9
END

FLUID_PROPERTY
  PHASE gas
  DIFFUSION_COEFFICIENT 1.000d-05
END

#=========================== material properties ==============================
MATERIAL_PROPERTY soil1
  ID 1
  POROSITY 0.25d0
  TORTUOSITY 1.d0
  SATURATION_FUNCTION default
END

# == saturation / permeability functions ======================================
SATURATION_FUNCTION HD
SATURATION_FUNCTION_TYPE VAN_GENUCHTEN
RESIDUAL_SATURATION 0.115
LAMBDA 0.286
ALPHA 1.9401d-4
/

#=========================== output options ===================================
OUTPUT
  PERIODIC_OBSERVATION TIMESTEP 1
  SCREEN PERIODIC 10
  PERIODIC TIMESTEP 1
  FORMAT HDF5
  !FORMAT TECPLOT POINT
  MASS_BALANCE
END

#=========================== times ============================================
TIME
  FINAL_TIME 2.d0 y
  INITIAL_TIMESTEP_SIZE 0.5d0 h
  MAXIMUM_TIMESTEP_SIZE 12.d0 h
END

#=========================== regions ==========================================
REGION all
  COORDINATES
    0.d0 0.d0 0.d0
    1.d0 1.d0 10.d0
  /
END

REGION obs_pt
  COORDINATE 0.5 0.5 5.0
END

#=========================== observation points ===============================
OBSERVATION
  REGION obs_pt
END

#=========================== transport conditions =============================
TRANSPORT_CONDITION initial
  TYPE zero_gradient
  CONSTRAINT_LIST
    0.d0 initial
  /
END



#=========================== condition couplers ===============================
# initial condition
INITIAL_CONDITION
  TRANSPORT_CONDITION initial
  REGION all
END

#=========================== stratigraphy couplers ============================
STRATA
  REGION all
  MATERIAL soil1
END

#=========================== regression =======================================
REGRESSION
  CELL_IDS
    1
  /
END

END_SUBSURFACE