#Description: 0D microbial degradation problem with biomass

SIMULATION
  SIMULATION_TYPE SUBSURFACE
  PROCESS_MODELS
    SUBSURFACE_TRANSPORT transport
      MODE GIRT
    /
  /
END

SUBSURFACE

#=========================== numerical methods ================================
NUMERICAL_METHODS TRANSPORT

  NEWTON_SOLVER
    # Uncomment to debug reactions
    #NUMERICAL_JACOBIAN
  /

  LINEAR_SOLVER
    SOLVER DIRECT
  /

END

#=========================== regression =======================================
REGRESSION
  CELL_IDS
    1
  /
END

#=========================== flow mode ========================================
# Uniform velocity (see below). No flow mode specified.

#=========================== useful tranport parameters ==================
SPECIFIED_VELOCITY
  UNIFORM? YES
  DATASET 0.d0 0.d0 0.d0 
END

#=========================== chemistry ========================================
CHEMISTRY
  PRIMARY_SPECIES
    Na+
    Cl-
    K+
  /
  IMMOBILE_SPECIES
    D(im)
  /
  MICROBIAL_REACTION
    CONCENTRATION_UNITS ACTIVITY
    # this is a bogus reaction; just using ions to alter activity
    REACTION Na+ + 2 Cl- <-> 1.5 K+
    RATE_CONSTANT 1.d-6
    MONOD 
      SPECIES_NAME Na+
      HALF_SATURATION_CONSTANT 1.d-5        ! A is the donor
      THRESHOLD_CONCENTRATION 1.d-20
    /
    MONOD
      SPECIES_NAME Cl-
      HALF_SATURATION_CONSTANT 1.d-4        ! B is the acceptor
      THRESHOLD_CONCENTRATION 1.d-11
    /
    INHIBITION
      SPECIES_NAME K+
      TYPE INVERSE_MONOD
      ! C is the product and inhibits when too high
      THRESHOLD_CONCENTRATION 6.d-4
    /
    BIOMASS
      SPECIES_NAME D(im)
      YIELD 0.01d0
    /
  /
  IMMOBILE_DECAY_REACTION
    SPECIES_NAME D(im)
    RATE_CONSTANT 1.d-9
  /
  DATABASE ../../../database/hanford.dat
  LOG_FORMULATION
  ACTIVITY_COEFFICIENTS TIMESTEP
  OUTPUT
    ALL
    TOTAL
  /
END

#=========================== solver options ===================================

#=========================== discretization ===================================
GRID
  TYPE STRUCTURED
  NXYZ 1 1 1
  BOUNDS
    0.d0 0.d0 0.d0
    1.d0 1.d0 1.d0
  /
END

#=========================== fluid properties =================================
FLUID_PROPERTY
  DIFFUSION_COEFFICIENT 1.d-9
END

#=========================== material properties ==============================
MATERIAL_PROPERTY soil1
  ID 1
  POROSITY 0.25d0
  TORTUOSITY 1.d0
END

#=========================== output options ===================================
OUTPUT
#  TIMES y 5. 10. 15. 20.
skip
  FORMAT TECPLOT POINT
  PERIODIC_OBSERVATION TIMESTEP 1
noskip
END

#=========================== times ============================================
TIME
  FINAL_TIME 25.d0 y            ! A(aq) at 50m midpoint
  INITIAL_TIMESTEP_SIZE 1.d0 h
  MAXIMUM_TIMESTEP_SIZE 2.5d-1 y
#  MAXIMUM_TIMESTEP_SIZE 1.d-3 y
END

#=========================== regions ==========================================
REGION all
  COORDINATES
    -1.d20 -1.d20 -1.d20
    1.d20 1.d20 1.d20
  /
END

REGION pt
  COORDINATE 0.5d0 0.5d0 0.5d0
END

#=========================== observation points ===============================
OBSERVATION
  REGION pt
END

#=========================== transport conditions =============================
TRANSPORT_CONDITION initial
  TYPE ZERO_GRADIENT
  CONSTRAINT_LIST
    0.d0 initial
  /
END

#=========================== constraints ======================================
CONSTRAINT initial
  CONCENTRATIONS
    Na+ 1.d-4  T
    Cl- 1.d-3  T
    K+  1.d-7  T
  /
  IMMOBILE
    D(im) 1.d-7
  /
END

#=========================== condition couplers ===============================
# initial condition
INITIAL_CONDITION
  TRANSPORT_CONDITION initial
  REGION all
END

#=========================== stratigraphy couplers ============================
STRATA
  REGION all
  MATERIAL soil1
END

END_SUBSURFACE
