#Description: 0D microbial degradation problem with biomass

SIMULATION
  SIMULATION_TYPE SUBSURFACE
  PROCESS_MODELS
    SUBSURFACE_TRANSPORT transport
      MODE GIRT
      OPTIONS
      /
    /
  /
END

SUBSURFACE

EXTERNAL_FILE ./cybernetic.txt
EXTERNAL_FILE ./cybernetic_constraint.txt

#=========================== chemistry ========================================
CHEMISTRY
  PRIMARY_SPECIES
    C5H7O2N(aq)
    CH2O(aq)
    CO2(aq)
    NH4+
    NO2-
    NO3-
    N2(aq)
    O2(aq)
  /
  IMMOBILE_SPECIES
    C_consumption
  /
  REACTION_SANDBOX 
    CYBERNETIC
      F1    0.65
      F2    0.99d0
      F3    0.2167d0
      K1    28.26d0 1/d
      Ka1   0.001d0 mM
      Kd1   0.25d0 mM
      K2    23.28d0 1/d
      Ka2   0.004d0 mM
      Kd2   0.25d0 mM
      K3    84.78d0 1/d
      Ka3   0.001d0 mM
      Kd3   0.25d0 mM
      Kdeg  0.242d0 1/d
      MOBILE_BIOMASS
      REFERENCE_TEMPERATURE 25.d0 ! degrees C
      ACTIVATION_ENERGY 89.d0 kJ/mol
      INHIBIT_BY_REACTANTS 1.d-5
      INHIBITION_FUNCTION ARCTAN2 1.d11
    /
  /
  LOG_FORMULATION
  ACTIVITY_COEFFICIENTS OFF
  OUTPUT
    ALL
    TOTAL
    AUXILIARY
  /
END

END_SUBSURFACE
