#Description: 0D immobile species decay in multiple grid cells

SIMULATION
  SIMULATION_TYPE SUBSURFACE
  PROCESS_MODELS
    SUBSURFACE_TRANSPORT transport
      MODE GIRT
    /
  /
END

SUBSURFACE

#=========================== numerical methods ================================
NUMERICAL_METHODS TRANSPORT

  NEWTON_SOLVER
    # Uncomment to debug reactions
    #NUMERICAL_JACOBIAN
  /

  LINEAR_SOLVER
    SOLVER DIRECT
  /

END

#=========================== regression =======================================
REGRESSION
  CELL_IDS
    1
    2
  /
END

#=========================== useful tranport parameters =======================
SPECIFIED_VELOCITY
  UNIFORM? YES
  DATASET 0.d0 0.d0 0.d0 
END

#=========================== discretization ===================================
GRID
  TYPE STRUCTURED
  NXYZ 1 1 2
  BOUNDS
    0.d0 0.d0 0.d0
    1.d0 1.d0 2.d0
  /
END

#=========================== fluid properties =================================
FLUID_PROPERTY
  DIFFUSION_COEFFICIENT 1.d-9
END

#=========================== material properties ==============================
MATERIAL_PROPERTY soil1
  ID 1
  POROSITY 0.25d0
  TORTUOSITY 1.d0
END

#=========================== output options ===================================
OUTPUT
  FORMAT TECPLOT POINT
  PERIODIC_OBSERVATION TIMESTEP 1
END

#=========================== times ============================================
TIME
  FINAL_TIME 25.d0 y
  INITIAL_TIMESTEP_SIZE 1.d0 y
  MAXIMUM_TIMESTEP_SIZE 1.d0 y
END

#=========================== regions ==========================================
REGION all
  COORDINATES
    -1.d20 -1.d20 -1.d20
    1.d20 1.d20 1.d20
  /
END

REGION pt
  COORDINATE 0.5d0 0.5d0 0.5d0
END

#=========================== observation points ===============================
OBSERVATION
  REGION pt
END

#=========================== transport conditions =============================
TRANSPORT_CONDITION initial
  TYPE ZERO_GRADIENT
  CONSTRAINT_LIST
    0.d0 initial
  /
END

#=========================== constraints ======================================
CONSTRAINT initial
  IMMOBILE
    D(im) 1.d-3
    E(im) 1.d-3
  /
END

#=========================== condition couplers ===============================
# initial condition
INITIAL_CONDITION
  TRANSPORT_CONDITION initial
  REGION all
END

#=========================== stratigraphy couplers ============================
STRATA
  REGION all
  MATERIAL soil1
END

#=========================== chemistry ========================================
CHEMISTRY
  IMMOBILE_SPECIES
    D(im)
    E(im)
  /
  IMMOBILE_DECAY_REACTION
    SPECIES_NAME D(im)
    RATE_CONSTANT 0.0554518 1/y
  /
  LOG_FORMULATION
  ACTIVITY_COEFFICIENTS OFF
  OUTPUT
    ALL
    TOTAL
  /
END

END_SUBSURFACE
