!Description! 3D groundwater flow and solute transport

SIMULATION
  SIMULATION_TYPE SUBSURFACE
  PROCESS_MODELS
    SUBSURFACE_FLOW flow
      MODE RICHARDS
    /
  /
END

SUBSURFACE

!=========================== regression =======================================

REGRESSION
  CELLS_PER_PROCESS 5
END

!=========================== solver options ===================================

NUMERICAL_METHODS FLOW

NEWTON_SOLVER
  ITOL_UPDATE 1.d0     ! Convergences with max change in pressure is 1 Pa.
END

LINEAR_SOLVER
END

END

!INITIALIZE_FLOW_FROM_FILE B_10p0dx_10p0dy_10nz_clm_depths_initial_condition.h5

!=========================== discretization ===================================
GRID
  TYPE unstructured B_10p0dx_10p0dy_10nz_clm_depths.h5
END

!=========================== fluid properties =================================
FLUID_PROPERTY
  DIFFUSION_COEFFICIENT 1.d-9
END

!=========================== material properties ==============================
MATERIAL_PROPERTY soil1
  ID 1
  POROSITY 0.25d0
  TORTUOSITY 0.5d0
  CHARACTERISTIC_CURVES sf1
  PERMEABILITY
    PERM_X 1.d-10
    PERM_Y 1.d-10
    PERM_Z 1.d-11
  /
END

#=========================== characteristic curves ============================
CHARACTERISTIC_CURVES sf1
  SATURATION_FUNCTION VAN_GENUCHTEN
    M 0.286
    ALPHA  1.9401d-4
    LIQUID_RESIDUAL_SATURATION 0.115
  /
  PERMEABILITY_FUNCTION MUALEM_VG_LIQ
    M 0.286
    LIQUID_RESIDUAL_SATURATION 0.115
  /
END

!=========================== output options ===================================
!OUTPUT
!  PERIODIC TIME 3600.d0 s
!   FORMAT HDF5
!END

!=========================== times ============================================
TIME
  FINAL_TIME 36000.d0 s
  INITIAL_TIMESTEP_SIZE 3600. s
  MAXIMUM_TIMESTEP_SIZE 3600. s        ! produces CFL ~<= 1.
END

!=========================== regions ==========================================
REGION all
  FILE B_10p0dx_10p0dy_10nz_clm_depths.h5
END


!=========================== flow conditions ==================================
FLOW_CONDITION initial
  TYPE
    PRESSURE hydrostatic
  /
  INTERPOLATION linear
  DATUM 0.d0 0.d0 3000.d0
  PRESSURE 101325.d0
END

FLOW_CONDITION transpiration
TYPE
RATE volumetric_rate
/
RATE 0.0d0
END

!=========================== condition couplers ===============================
! initial condition
INITIAL_CONDITION
  FLOW_CONDITION initial
  REGION all
END

SOURCE_SINK vegroot
FLOW_CONDITION transpiration
REGION all 
/

!=========================== stratigraphy couplers ============================
STRATA
  REGION all
  MATERIAL soil1
END

HDF5_READ_GROUP_SIZE 1

END_SUBSURFACE

MAPPING_FILES                   
  CLM2PF_FLUX_FILE B_10p0dx_10p0dy_10nz_clm2pf_map_c130501.dat
  CLM2PF_SOIL_FILE B_10p0dx_10p0dy_10nz_clm2pf_map_c130501.dat
  PF2CLM_FLUX_FILE B_10p0dx_10p0dy_10nz_pf2clm_map_c130501.dat
END
