#Description: 1D variably saturated flow problem

SIMULATION
  SIMULATION_TYPE SUBSURFACE
  PROCESS_MODELS
    SUBSURFACE_FLOW flow
      MODE ZFLOW
      OPTIONS
        PROCESSES
          LIQUID_FLOW
        /
      /
    /
  /
END

SUBSURFACE
  EXTERNAL_FILE 3x1x3_transient.txt
END_SUBSURFACE
