SIMULATION
  SIMULATION_TYPE SUBSURFACE
  PROCESS_MODELS
    SUBSURFACE_FLOW flow
      MODE ZFLOW
      OPTIONS
        EXTERNAL_FILE zflow_standard_options.txt
      /
    /
  /
END

SUBSURFACE
  EXTERNAL_FILE 3x1x3_transient_vsat.txt
END_SUBSURFACE
