#Description: 1D variably saturated flow problem

SIMULATION
  SIMULATION_TYPE SUBSURFACE
  PROCESS_MODELS
    SUBSURFACE_FLOW flow
      MODE ZFLOW
      OPTIONS
        STEADY_STATE
#        ADJOINT
      /
    /
  /
END

SUBSURFACE
  EXTERNAL_FILE 3x3x3.txt
END_SUBSURFACE
