SIMULATION
  SIMULATION_TYPE SUBSURFACE
  PROCESS_MODELS
    SUBSURFACE_FLOW flow
      MODE ZFLOW
      OPTIONS
        PROCESSES
          LIQUID_FLOW
          SOLUTE_TRANSPORT
        /
      /
    /
    SUBSURFACE_GEOPHYSICS geophysics
      MODE ERT
      OPTIONS
        MAX_TRACER_CONCENTRATION 1.d-3
#        CEMENTATION_EXPONENT 1.3d0 # overwritten by value in MATERIAL_PROPERTY 
        WATER_CONDUCTIVITY 0.04d0
        TRACER_WATER_CONDUCTIVITY 0.012d0
        SURVEY_TIMES d 0.63 1.25
        OUTPUT_ALL_SURVEYS
      /
    /
  /
END

SUBSURFACE
  EXTERNAL_FILE 8x1x3_zflow_ert.txt
END_SUBSURFACE
