SIMULATION
  SIMULATION_TYPE SUBSURFACE
  PROCESS_MODELS
    SUBSURFACE_FLOW flow
      MODE RICHARDS
    /
    SUBSURFACE_TRANSPORT
      MODE GIRT
    /
  /
END

SUBSURFACE

EXTERNAL_FILE tort_aniso_2_mat.txt

END_SUBSURFACE
