
SIMULATION
  SIMULATION_TYPE SUBSURFACE
  PROCESS_MODELS
    SUBSURFACE_TRANSPORT transport
      GLOBAL_IMPLICIT
    /
  /
END

SUBSURFACE

#=========================== regression =======================================
REGRESSION
  CELLS
    1
  /
END

#=========================== useful tranport parameters =======================
UNIFORM_VELOCITY 0.d0 0.d0 0.d0 

REFERENCE_DENSITY 1.d3

#=========================== chemistry ========================================
CHEMISTRY
  PRIMARY_SPECIES
    NH3(aq)
    NO3-
    HCO3-
  /
  REDOX_SPECIES
    NO3-
  /
  IMMOBILE_SPECIES
    LabileC
    LabileN
    Bacteria
    Fungi
  /
  REACTION_SANDBOX
    CLM-DECOMP
      POOLS   ! CN ratio
        Labile
        Bacteria  5.0d0
        Fungi    15.0d0 
      /

      CLM-MICROBE-LITTER-DECOMPOSITION

      REACTION
        UPSTREAM_POOL Labile
        DOWNSTREAM_POOL Bacteria 0.1d0 
        DOWNSTREAM_POOL Fungi    0.1d0   ! fraction is not used for clm-mcirobe litter pools
        RATE_CONSTANT 0.7 1/d
      /
      X0EPS 1.0d-20
      DOWNREGULATE_NH4 -1.0d-20 1.0d-18
      DOWNREGULATE_NO3 -1.0d-20 1.0d-18
    /
  /
#  LOG_FORMULATION
  DATABASE ./hanford-clm.dat
  OUTPUT
    all
    TOTAL
  /
END

#=========================== solver options ===================================
LINEAR_SOLVER TRANSPORT
  SOLVER DIRECT
END

NEWTON_SOLVER TRANSPORT
  ATOL 1.d-50
#  RTOL 1.d-12
END

#=========================== discretization ===================================
GRID
  TYPE structured
  NXYZ 1 1 1
  BOUNDS
    0.d0 0.d0 0.d0
    1.d0 1.d0 1.d0
  /
END

#=========================== fluid properties =================================
FLUID_PROPERTY 
  DIFFUSION_COEFFICIENT 1.d-9
END

#=========================== material properties ==============================
MATERIAL_PROPERTY soil1
  ID 1
  POROSITY 0.25d0
  TORTUOSITY 1.d0
END

#=========================== output options ===================================
OUTPUT
  PERIODIC_OBSERVATION TIMESTEP 1
END

#=========================== times ============================================
TIME
  FINAL_TIME 10.d0 d
  INITIAL_TIMESTEP_SIZE 1.d0 h
  MAXIMUM_TIMESTEP_SIZE 0.1d0 d
END

#=========================== regions ==========================================
REGION all
  COORDINATES
    0.d0 0.d0 0.d0
    1.d0 1.d0 1.d0
  /
END

REGION obs_pt
  COORDINATE 0.5 0.5 0.5
END

#=========================== observation points ===============================
OBSERVATION
  REGION obs_pt
END

#=========================== transport conditions =============================
TRANSPORT_CONDITION initial
  TYPE zero_gradient
  CONSTRAINT_LIST
    0.d0 initial
  /
END

#=========================== transport constraints ============================
CONSTRAINT initial
  CONCENTRATIONS
    NH3(aq) 1.d-5     T  ! moles/L
    NO3-    1.d-5     T  ! moles/L
    HCO3-  1.d-20     T  ! moles/L
  /
  IMMOBILE
    LabileC     0.1852d-0
    LabileN     0.00508954d-0
    Bacteria        1.d-20 ! moles C/m^3
    Fungi           1.d-20 ! moles C/m^3
  /
END

#=========================== condition couplers ===============================
# initial condition
INITIAL_CONDITION
  TRANSPORT_CONDITION initial
  REGION all
END

#=========================== stratigraphy couplers ============================
STRATA
  REGION all
  MATERIAL soil1
END


