#Description: 3D groundwater flow and solute transport

SIMULATION
  SIMULATION_TYPE SUBSURFACE
  PROCESS_MODELS
    SUBSURFACE_FLOW flow
      MODE RICHARDS
    /
    SUBSURFACE_TRANSPORT transport
      MODE GIRT
    /
  /
END

SUBSURFACE

#=========================== fluid properties =================================
EOS WATER
  DENSITY CONSTANT 998.32d0
  VISCOSITY CONSTANT 8.9d-4
/

#=========================== numerical methods ================================
NUMERICAL_METHODS FLOW

  NEWTON_SOLVER
    ITOL_UPDATE 1.d0     ! Convergences with max change in pressure is 1 Pa.
  /

END

EXTERNAL_FILE ./reg_doublet.txt

END_SUBSURFACE
